<?xml version="1.0"?>
<!-- generated on 2014-04-22 20:48:07.964579 by $Id: randomTrips.py 14425 2013-08-16 20:11:47Z behrisch $ -->
<trips>
    <trip id="0" depart="0.00" from="5216593" to="-26294939#2" type="car" />
    <trip id="1" depart="0.80" from="235318231#1" to="235318237" type="car" />
    <trip id="2" depart="1.60" from="5217352#3" to="138151954#1" type="car" />
    <trip id="3" depart="2.40" from="8602352#2" to="-256787706" type="car" />
    <trip id="4" depart="3.20" from="-5217005#2" to="-205349745" type="car" />
    <trip id="5" depart="4.00" from="-5219344#0" to="-95288244#0" type="car" />
    <trip id="6" depart="4.80" from="-132130891#0" to="132126524#2" type="car" />
    <trip id="7" depart="5.60" from="26295171" to="8602377" type="car" />
    <trip id="8" depart="6.40" from="-95196475" to="5217390#6" type="car" />
    <trip id="9" depart="7.20" from="130911746#1" to="93282093#4" type="car" />
    <trip id="10" depart="8.00" from="-40634996#2" to="-236461790#1" type="car" />
    <trip id="11" depart="8.80" from="-131263959#0" to="137829128#0" type="car" />
    <trip id="12" depart="9.60" from="-263562955#6" to="5219295#1" type="car" />
    <trip id="13" depart="10.40" from="137150843#0" to="-90177295" type="car" />
    <trip id="14" depart="11.20" from="5671682#0" to="8602329" type="car" />
    <trip id="15" depart="12.00" from="-130800744#3" to="5219543" type="car" />
    <trip id="16" depart="12.80" from="-200756684" to="40634995#3" type="car" />
    <trip id="17" depart="13.60" from="26310724" to="5219540#4" type="car" />
    <trip id="18" depart="14.40" from="4259730#4" to="26294940" type="car" />
    <trip id="19" depart="15.20" from="-236462824" to="89349789#0" type="car" />
    <trip id="20" depart="16.00" from="72879236#3" to="-256787684#2" type="car" />
    <trip id="21" depart="16.80" from="137150833" to="-72879221#1" type="car" />
    <trip id="22" depart="17.60" from="26295170" to="5217472" type="car" />
    <trip id="23" depart="18.40" from="5219548" to="-40634995#2" type="car" />
    <trip id="24" depart="19.20" from="-72879236#3" to="-8602358" type="car" />
    <trip id="25" depart="20.00" from="5218367#1" to="236461646#9" type="car" />
    <trip id="26" depart="20.80" from="100611548" to="5218369#0" type="car" />
    <trip id="27" depart="21.60" from="-5217390#7" to="-5217468" type="car" />
    <trip id="28" depart="22.40" from="-5680501#1" to="-5219540#1" type="car" />
    <trip id="29" depart="23.20" from="-5219280#3" to="-5217465#0" type="car" />
    <trip id="30" depart="24.00" from="235318233" to="-8602379#0" type="car" />
    <trip id="31" depart="24.80" from="-95253163#2" to="133197918" type="car" />
    <trip id="32" depart="25.60" from="256787691" to="-93282093#2" type="car" />
    <trip id="33" depart="26.40" from="236461790#4" to="-256787692" type="car" />
    <trip id="34" depart="27.20" from="137150825" to="40634997" type="car" />
    <trip id="35" depart="28.00" from="130911748" to="235318221#0" type="car" />
    <trip id="36" depart="28.80" from="40634996#1" to="95288246#7" type="car" />
    <trip id="37" depart="29.60" from="5219542#0" to="5218342#2" type="car" />
    <trip id="38" depart="30.40" from="-235318249" to="132127684" type="car" />
    <trip id="39" depart="31.20" from="-175664753#1" to="5216629#1" type="car" />
    <trip id="40" depart="32.00" from="37873593" to="8602352#0" type="car" />
    <trip id="41" depart="32.80" from="26295175#1" to="40635001#1" type="car" />
    <trip id="42" depart="33.60" from="9167550#0" to="-8114770#3" type="car" />
    <trip id="43" depart="34.40" from="5217378#0" to="-135297884#1" type="car" />
    <trip id="44" depart="35.20" from="-269436436" to="-137150822" type="car" />
    <trip id="45" depart="36.00" from="40635762" to="-256787703" type="car" />
    <trip id="46" depart="36.80" from="-5680506" to="-26336484" type="car" />
    <trip id="47" depart="37.60" from="132127114#0" to="-130995272" type="car" />
    <trip id="48" depart="38.40" from="132130894" to="-130800747" type="car" />
    <trip id="49" depart="39.20" from="-40635001#1" to="235318221#0" type="car" />
    <trip id="50" depart="40.00" from="269436435" to="129399254#1" type="car" />
    <trip id="51" depart="40.80" from="-5680501#1" to="93282082#3" type="car" />
    <trip id="52" depart="41.60" from="94014336" to="5219283#0" type="car" />
    <trip id="53" depart="42.40" from="130910802" to="-8295063#0" type="car" />
    <trip id="54" depart="43.20" from="113219316" to="-4259736" type="car" />
    <trip id="55" depart="44.00" from="137150843#0" to="5218358#0" type="car" />
    <trip id="56" depart="44.80" from="-263489146#1" to="-130910802" type="car" />
    <trip id="57" depart="45.60" from="-25809743#0" to="-26336491#4" type="car" />
    <trip id="58" depart="46.40" from="-263489146#1" to="-93282089#0" type="car" />
    <trip id="59" depart="47.20" from="95288245" to="-271331022#0" type="car" />
    <trip id="60" depart="48.00" from="130800744#2" to="-9704276#0" type="car" />
    <trip id="61" depart="48.80" from="37873593" to="-5219545#2" type="car" />
    <trip id="62" depart="49.60" from="-26517425#3" to="-95288246#0" type="car" />
    <trip id="63" depart="50.40" from="235318225#5" to="132126524#2" type="car" />
    <trip id="64" depart="51.20" from="-8602311#1" to="-8602139" type="car" />
    <trip id="65" depart="52.00" from="8602395" to="256787699" type="car" />
    <trip id="66" depart="52.80" from="-8602355#2" to="-95196475" type="car" />
    <trip id="67" depart="53.60" from="8602422#0" to="-135297379" type="car" />
    <trip id="68" depart="54.40" from="3515023" to="-235318225#5" type="car" />
    <trip id="69" depart="55.20" from="-95288246#2" to="5217352#2" type="car" />
    <trip id="70" depart="56.00" from="-132126521" to="8602139" type="car" />
    <trip id="71" depart="56.80" from="-113214118" to="93282094" type="car" />
    <trip id="72" depart="57.60" from="100611549#2" to="-175664752" type="car" />
    <trip id="73" depart="58.40" from="-137829128#1" to="5217005#2" type="car" />
    <trip id="74" depart="59.20" from="-39220795" to="-8114783#0" type="car" />
    <trip id="75" depart="60.00" from="256787696#0" to="5216613#0" type="car" />
    <trip id="76" depart="60.80" from="137829128#1" to="-93282086" type="car" />
    <trip id="77" depart="61.60" from="72879236#3" to="-263562956#1" type="car" />
    <trip id="78" depart="62.40" from="-16262398#2" to="109176582#1" type="car" />
    <trip id="79" depart="63.20" from="5217005#1" to="-256787696#0" type="car" />
    <trip id="80" depart="64.00" from="8114783#2" to="-130994571" type="car" />
    <trip id="81" depart="64.80" from="5680501#0" to="-8602358" type="car" />
    <trip id="82" depart="65.60" from="5218323#1" to="-40634994#1" type="car" />
    <trip id="83" depart="66.40" from="93282093#3" to="26336491#1" type="car" />
    <trip id="84" depart="67.20" from="93282093#1" to="-26336491#1" type="car" />
    <trip id="85" depart="68.00" from="40635002#0" to="-90177264" type="car" />
    <trip id="86" depart="68.80" from="93282090" to="251517368" type="car" />
    <trip id="87" depart="69.60" from="-124558254" to="-72879193" type="car" />
    <trip id="88" depart="70.40" from="-5217469#0" to="-180313365#2" type="car" />
    <trip id="89" depart="71.20" from="5219260#0" to="95288244#2" type="car" />
    <trip id="90" depart="72.00" from="-26336491#5" to="-89349780" type="car" />
    <trip id="91" depart="72.80" from="-138151954#0" to="5216593" type="car" />
    <trip id="92" depart="73.60" from="5217466#0" to="136990915" type="car" />
    <trip id="93" depart="74.40" from="205349835#1" to="129399259" type="car" />
    <trip id="94" depart="75.20" from="-132209971" to="-8295068#1" type="car" />
    <trip id="95" depart="76.00" from="-40634995#2" to="-175664755#1" type="car" />
    <trip id="96" depart="76.80" from="8602371" to="256787683" type="car" />
    <trip id="97" depart="77.60" from="-93282094" to="-5219545#1" type="car" />
    <trip id="98" depart="78.40" from="40634998#1" to="-5217005#1" type="car" />
    <trip id="99" depart="79.20" from="-109178542" to="40635758#0" type="car" />
    <trip id="100" depart="80.00" from="130800749" to="130800744#1" type="car" />
    <trip id="101" depart="80.80" from="256787684#1" to="-26294932" type="car" />
    <trip id="102" depart="81.60" from="175664754#2" to="-50185493#0" type="car" />
    <trip id="103" depart="82.40" from="-5219260#2" to="-4259735#0" type="car" />
    <trip id="104" depart="83.20" from="-21931466" to="135297378#1" type="car" />
    <trip id="105" depart="84.00" from="-184656307" to="93282095#1" type="car" />
    <trip id="106" depart="84.80" from="8602349#0" to="-95288244#2" type="car" />
    <trip id="107" depart="85.60" from="26295169" to="-256787690" type="car" />
    <trip id="108" depart="86.40" from="40635756" to="-8602355#2" type="car" />
    <trip id="109" depart="87.20" from="5216960#0" to="-95288246#2" type="car" />
    <trip id="110" depart="88.00" from="5218450#2" to="-256787693" type="car" />
    <trip id="111" depart="88.80" from="-5219540#5" to="-256787689" type="car" />
    <trip id="112" depart="89.60" from="-5217005#0" to="-8295068#0" type="car" />
    <trip id="113" depart="90.40" from="263562956#0" to="-8602355#0" type="car" />
    <trip id="114" depart="91.20" from="-93282093#0" to="-269436434#1" type="car" />
    <trip id="115" depart="92.00" from="40634998#0" to="-8602351" type="car" />
    <trip id="116" depart="92.80" from="-137150821" to="-5219545#2" type="car" />
    <trip id="117" depart="93.60" from="-132130884" to="-8295063#2" type="car" />
    <trip id="118" depart="94.40" from="236462766#0" to="-95288244#2" type="car" />
    <trip id="119" depart="95.20" from="26310705#0" to="5219288#1" type="car" />
    <trip id="120" depart="96.00" from="90177337#0" to="8603497" type="car" />
    <trip id="121" depart="96.80" from="236462883#2" to="-269436434#0" type="car" />
    <trip id="122" depart="97.60" from="9165806#0" to="236461646#9" type="car" />
    <trip id="123" depart="98.40" from="113213760#2" to="132130894" type="car" />
    <trip id="124" depart="99.20" from="-132126523" to="-235318248" type="car" />
    <trip id="125" depart="100.00" from="236461790#2" to="-26336483" type="car" />
    <trip id="126" depart="100.80" from="95288241" to="4259738#1" type="car" />
    <trip id="127" depart="101.60" from="236367280" to="-5219256" type="car" />
    <trip id="128" depart="102.40" from="-5217267" to="-8602356#1" type="car" />
    <trip id="129" depart="103.20" from="-93282093#4" to="-5219280#2" type="car" />
    <trip id="130" depart="104.00" from="236368867" to="256787705#1" type="car" />
    <trip id="131" depart="104.80" from="-8602420" to="129399259" type="car" />
    <trip id="132" depart="105.60" from="5218342#2" to="-180313365#1" type="car" />
    <trip id="133" depart="106.40" from="-93282095#0" to="-5217005#2" type="car" />
    <trip id="134" depart="107.20" from="-26336491#5" to="-95288240" type="car" />
    <trip id="135" depart="108.00" from="-4259730#1" to="-256787695" type="car" />
    <trip id="136" depart="108.80" from="-175664753#1" to="50185490" type="car" />
    <trip id="137" depart="109.60" from="8114783#2" to="-109178542" type="car" />
    <trip id="138" depart="110.40" from="124558254" to="-130803351" type="car" />
    <trip id="139" depart="111.20" from="72879236#0" to="235318236" type="car" />
    <trip id="140" depart="112.00" from="236461646#0" to="130803348" type="car" />
    <trip id="141" depart="112.80" from="26294934#1" to="5219289" type="car" />
    <trip id="142" depart="113.60" from="137150833" to="-5218498#1" type="car" />
    <trip id="143" depart="114.40" from="-22181124#0" to="5217010" type="car" />
    <trip id="144" depart="115.20" from="-26336491#9" to="180313365#2" type="car" />
    <trip id="145" depart="116.00" from="175664754#2" to="5216960#0" type="car" />
    <trip id="146" depart="116.80" from="-236461646#3" to="39220795" type="car" />
    <trip id="147" depart="117.60" from="8602410" to="40634995#0" type="car" />
    <trip id="148" depart="118.40" from="-5219280#0" to="-130910802" type="car" />
    <trip id="149" depart="119.20" from="180315117" to="4259738#1" type="car" />
    <trip id="150" depart="120.00" from="-93282082#0" to="-5219542#1" type="car" />
    <trip id="151" depart="120.80" from="5219540#2" to="100611546#0" type="car" />
    <trip id="152" depart="121.60" from="93282094" to="137829128#3" type="car" />
    <trip id="153" depart="122.40" from="95288244#0" to="131003573" type="car" />
    <trip id="154" depart="123.20" from="100611543#1" to="256787684#1" type="car" />
    <trip id="155" depart="124.00" from="-5680505" to="271335787" type="car" />
    <trip id="156" depart="124.80" from="-40634996#2" to="95288247#1" type="car" />
    <trip id="157" depart="125.60" from="-130773979#1" to="269436434#0" type="car" />
    <trip id="158" depart="126.40" from="40635763" to="5217378#1" type="car" />
    <trip id="159" depart="127.20" from="236367508#3" to="-90177340" type="car" />
    <trip id="160" depart="128.00" from="130804567" to="5217468" type="car" />
    <trip id="161" depart="128.80" from="9775812" to="135297884#0" type="car" />
    <trip id="162" depart="129.60" from="-25809743#1" to="-8602358" type="car" />
    <trip id="163" depart="130.40" from="26295169" to="8602370" type="car" />
    <trip id="164" depart="131.20" from="-137150833" to="-39220782#1" type="car" />
    <trip id="165" depart="132.00" from="5219540#1" to="-8602348#1" type="car" />
    <trip id="166" depart="132.80" from="5680500#0" to="132209970" type="car" />
    <trip id="167" depart="133.60" from="5219545#0" to="-130803345" type="car" />
    <trip id="168" depart="134.40" from="245807392" to="-113214118" type="car" />
    <trip id="169" depart="135.20" from="-40634995#2" to="-256787705#1" type="car" />
    <trip id="170" depart="136.00" from="-251517368" to="-8602138" type="car" />
    <trip id="171" depart="136.80" from="-245807395" to="-5218498#0" type="car" />
    <trip id="172" depart="137.60" from="93282093#6" to="263562955#1" type="car" />
    <trip id="173" depart="138.40" from="-5218358#1" to="-9704276#1" type="car" />
    <trip id="174" depart="139.20" from="-40634997" to="137150833" type="car" />
    <trip id="175" depart="140.00" from="-8602214" to="8602352#1" type="car" />
    <trip id="176" depart="140.80" from="-113213760#2" to="-93282095#1" type="car" />
    <trip id="177" depart="141.60" from="-271335787" to="236367508#1" type="car" />
    <trip id="178" depart="142.40" from="50185493#0" to="-130911746#1" type="car" />
    <trip id="179" depart="143.20" from="-256787684#1" to="21931467" type="car" />
    <trip id="180" depart="144.00" from="-26294935#2" to="-273844127" type="car" />
    <trip id="181" depart="144.80" from="-89349780" to="9167535#1" type="car" />
    <trip id="182" depart="145.60" from="-130800744#3" to="165358780#1" type="car" />
    <trip id="183" depart="146.40" from="-5219294#1" to="263562956#1" type="car" />
    <trip id="184" depart="147.20" from="-175664750#0" to="129399256#0" type="car" />
    <trip id="185" depart="148.00" from="-95196475" to="132126524#2" type="car" />
    <trip id="186" depart="148.80" from="8602352#0" to="-180313365#2" type="car" />
    <trip id="187" depart="149.60" from="-26294932" to="26295175#0" type="car" />
    <trip id="188" depart="150.40" from="-3515024#0" to="-8114788" type="car" />
    <trip id="189" depart="151.20" from="5217468" to="256787688" type="car" />
    <trip id="190" depart="152.00" from="113213761#1" to="130800749" type="car" />
    <trip id="191" depart="152.80" from="236462066#0" to="-9776012" type="car" />
    <trip id="192" depart="153.60" from="256787694" to="-132127684" type="car" />
    <trip id="193" depart="154.40" from="8602379#1" to="72879236#2" type="car" />
    <trip id="194" depart="155.20" from="130775002" to="5219589" type="car" />
    <trip id="195" depart="156.00" from="-180313365#0" to="4259733#0" type="car" />
    <trip id="196" depart="156.80" from="4259735#1" to="-40634995#4" type="car" />
    <trip id="197" depart="157.60" from="130773979#2" to="26336491#1" type="car" />
    <trip id="198" depart="158.40" from="-5217390#8" to="256787703" type="car" />
    <trip id="199" depart="159.20" from="8295068#0" to="235318225#5" type="car" />
    <trip id="200" depart="160.00" from="-236461646#5" to="9167535#1" type="car" />
    <trip id="201" depart="160.80" from="256787693" to="-8602311#1" type="car" />
    <trip id="202" depart="161.60" from="26517424" to="175664753#0" type="car" />
    <trip id="203" depart="162.40" from="26295172" to="113213760#0" type="car" />
    <trip id="204" depart="163.20" from="-256787684#1" to="256787693" type="car" />
    <trip id="205" depart="164.00" from="-256787704#0" to="40634998#0" type="car" />
    <trip id="206" depart="164.80" from="132148284" to="-8602356#0" type="car" />
    <trip id="207" depart="165.60" from="8602214" to="-175664756#0" type="car" />
    <trip id="208" depart="166.40" from="132126523" to="-5219280#1" type="car" />
    <trip id="209" depart="167.20" from="-5218323#0" to="-132127114#1" type="car" />
    <trip id="210" depart="168.00" from="5217362#0" to="-175664756#0" type="car" />
    <trip id="211" depart="168.80" from="8602352#0" to="-95196474#2" type="car" />
    <trip id="212" depart="169.60" from="-5219260#1" to="5219283#2" type="car" />
    <trip id="213" depart="170.40" from="-180332288#0" to="4259734" type="car" />
    <trip id="214" depart="171.20" from="40635758#0" to="-8114770#3" type="car" />
    <trip id="215" depart="172.00" from="-124558254" to="-235318225#0" type="car" />
    <trip id="216" depart="172.80" from="-130800744#0" to="132130891#1" type="car" />
    <trip id="217" depart="173.60" from="236462883#5" to="40634995#1" type="car" />
    <trip id="218" depart="174.40" from="235318221#0" to="-90177337#0" type="car" />
    <trip id="219" depart="175.20" from="5217005#2" to="-180315117" type="car" />
    <trip id="220" depart="176.00" from="-25809743#2" to="129399256#0" type="car" />
    <trip id="221" depart="176.80" from="50185493#2" to="5219628#0" type="car" />
    <trip id="222" depart="177.60" from="5671682#0" to="26294933#1" type="car" />
    <trip id="223" depart="178.40" from="8602375#1" to="256787707" type="car" />
    <trip id="224" depart="179.20" from="-8295068#1" to="8602352#3" type="car" />
    <trip id="225" depart="180.00" from="-256787704#1" to="-26517424" type="car" />
    <trip id="226" depart="180.80" from="90177291" to="-5219542#1" type="car" />
    <trip id="227" depart="181.60" from="-113214452#0" to="26336484" type="car" />
    <trip id="228" depart="182.40" from="-256787680#1" to="137829136" type="car" />
    <trip id="229" depart="183.20" from="26294936" to="137150841" type="car" />
    <trip id="230" depart="184.00" from="-158325155" to="175664754#2" type="car" />
    <trip id="231" depart="184.80" from="236461646#7" to="-175664754#2" type="car" />
    <trip id="232" depart="185.60" from="-132130894" to="-26336491#0" type="car" />
    <trip id="233" depart="186.40" from="-40634995#3" to="-256787690" type="car" />
    <trip id="234" depart="187.20" from="-256787695" to="5217268#0" type="car" />
    <trip id="235" depart="188.00" from="40634997" to="-256787706" type="car" />
    <trip id="236" depart="188.80" from="100611546#0" to="135297376" type="car" />
    <trip id="237" depart="189.60" from="175664754#0" to="-21931466" type="car" />
    <trip id="238" depart="190.40" from="26517384#1" to="5217390#4" type="car" />
    <trip id="239" depart="191.20" from="180315117" to="5218357#2" type="car" />
    <trip id="240" depart="192.00" from="-130803346" to="-236461646#4" type="car" />
    <trip id="241" depart="192.80" from="5217390#9" to="95288245" type="car" />
    <trip id="242" depart="193.60" from="-235318221#1" to="5219283#1" type="car" />
    <trip id="243" depart="194.40" from="130803765#3" to="4259730#1" type="car" />
    <trip id="244" depart="195.20" from="130800744#3" to="-8602311#1" type="car" />
    <trip id="245" depart="196.00" from="93282089#1" to="95288243" type="car" />
    <trip id="246" depart="196.80" from="-5219404#1" to="235318225#0" type="car" />
    <trip id="247" depart="197.60" from="5216960#0" to="164406198" type="car" />
    <trip id="248" depart="198.40" from="-5217268#0" to="236461646#7" type="car" />
    <trip id="249" depart="199.20" from="5219589" to="22181128#1" type="car" />
    <trip id="250" depart="200.00" from="5219280#5" to="8602329" type="car" />
    <trip id="251" depart="200.80" from="130994571" to="130911748" type="car" />
    <trip id="252" depart="201.60" from="40635763" to="40635002#1" type="car" />
    <trip id="253" depart="202.40" from="256787697" to="-26336491#8" type="car" />
    <trip id="254" depart="203.20" from="235318225#3" to="50185493#0" type="car" />
    <trip id="255" depart="204.00" from="130995146#0" to="-90177249" type="car" />
    <trip id="256" depart="204.80" from="132130879#1" to="8295063#2" type="car" />
    <trip id="257" depart="205.60" from="137150825" to="5216960#2" type="car" />
    <trip id="258" depart="206.40" from="-9703997" to="-236461790#3" type="car" />
    <trip id="259" depart="207.20" from="245807396" to="-26336491#1" type="car" />
    <trip id="260" depart="208.00" from="-5219404#1" to="-39220715" type="car" />
    <trip id="261" depart="208.80" from="-90177337#0" to="26336491#9" type="car" />
    <trip id="262" depart="209.60" from="5219540#5" to="-130800749" type="car" />
    <trip id="263" depart="210.40" from="-8602355#0" to="94014335" type="car" />
    <trip id="264" depart="211.20" from="175664754#1" to="-26294939#1" type="car" />
    <trip id="265" depart="212.00" from="-158325155" to="95288246#0" type="car" />
    <trip id="266" depart="212.80" from="5219540#2" to="5680501#0" type="car" />
    <trip id="267" depart="213.60" from="-256787689" to="-8602312#0" type="car" />
    <trip id="268" depart="214.40" from="-235318225#2" to="130800751" type="car" />
    <trip id="269" depart="215.20" from="129399258#2" to="4259730#4" type="car" />
    <trip id="270" depart="216.00" from="5218450#2" to="-132130894" type="car" />
    <trip id="271" depart="216.80" from="-256787682" to="5218369#4" type="car" />
    <trip id="272" depart="217.60" from="156953871" to="236462883#2" type="car" />
    <trip id="273" depart="218.40" from="95288244#1" to="8602376#1" type="car" />
    <trip id="274" depart="219.20" from="180332289#1" to="39220806" type="car" />
    <trip id="275" depart="220.00" from="-137829128#0" to="-26310724" type="car" />
    <trip id="276" depart="220.80" from="94626726" to="-175664750#0" type="car" />
    <trip id="277" depart="221.60" from="-5219624" to="8602375#0" type="car" />
    <trip id="278" depart="222.40" from="137150832" to="175664754#0" type="car" />
    <trip id="279" depart="223.20" from="135297378#0" to="-132127114#1" type="car" />
    <trip id="280" depart="224.00" from="132130879#0" to="-236461790#2" type="car" />
    <trip id="281" depart="224.80" from="95288243" to="175664756#1" type="car" />
    <trip id="282" depart="225.60" from="5219264" to="26295168" type="car" />
    <trip id="283" depart="226.40" from="-5217005#3" to="22181132" type="car" />
    <trip id="284" depart="227.20" from="5219282#2" to="5218369#4" type="car" />
    <trip id="285" depart="228.00" from="25809744#0" to="130800744#5" type="car" />
    <trip id="286" depart="228.80" from="-95196475" to="269436436" type="car" />
    <trip id="287" depart="229.60" from="-184656307" to="8602394#1" type="car" />
    <trip id="288" depart="230.40" from="-89349789#1" to="93282089#0" type="car" />
    <trip id="289" depart="231.20" from="-90177249" to="-9704276#0" type="car" />
    <trip id="290" depart="232.00" from="264842598" to="-132127683" type="car" />
    <trip id="291" depart="232.80" from="-256787704#0" to="-94614829" type="car" />
    <trip id="292" depart="233.60" from="263562955#0" to="-132126524#1" type="car" />
    <trip id="293" depart="234.40" from="5219410#0" to="135297378#1" type="car" />
    <trip id="294" depart="235.20" from="8602352#3" to="95288246#1" type="car" />
    <trip id="295" depart="236.00" from="5219624" to="-132130891#0" type="car" />
    <trip id="296" depart="236.80" from="26310718#0" to="-16262398#1" type="car" />
    <trip id="297" depart="237.60" from="5217005#3" to="-256787704#2" type="car" />
    <trip id="298" depart="238.40" from="-89349789#0" to="-130803345" type="car" />
    <trip id="299" depart="239.20" from="132130879#1" to="5218342#1" type="car" />
    <trip id="300" depart="240.00" from="-39220782#0" to="93282082#3" type="car" />
    <trip id="301" depart="240.80" from="5216606#1" to="26517425#0" type="car" />
    <trip id="302" depart="241.60" from="236461646#5" to="-8602355#0" type="car" />
    <trip id="303" depart="242.40" from="9704276#0" to="236461646#7" type="car" />
    <trip id="304" depart="243.20" from="-26295173#2" to="4259738#0" type="car" />
    <trip id="305" depart="244.00" from="40634999" to="-256787689" type="car" />
    <trip id="306" depart="244.80" from="135297884#1" to="-256787679#1" type="car" />
    <trip id="307" depart="245.60" from="-26336491#1" to="256787680#0" type="car" />
    <trip id="308" depart="246.40" from="-8602377" to="95288247#1" type="car" />
    <trip id="309" depart="247.20" from="-256787707" to="5219283#0" type="car" />
    <trip id="310" depart="248.00" from="130773979#2" to="9165806#3" type="car" />
    <trip id="311" depart="248.80" from="9165806#0" to="-93282093#7" type="car" />
    <trip id="312" depart="249.60" from="130803765#3" to="26336492" type="car" />
    <trip id="313" depart="250.40" from="-113214452#0" to="90177299#3" type="car" />
    <trip id="314" depart="251.20" from="236461646#5" to="100611543#5" type="car" />
    <trip id="315" depart="252.00" from="-205349835#0" to="89349780" type="car" />
    <trip id="316" depart="252.80" from="-93282093#2" to="-8295068#1" type="car" />
    <trip id="317" depart="253.60" from="-130994571" to="8114780#1" type="car" />
    <trip id="318" depart="254.40" from="95288247#0" to="-9775788" type="car" />
    <trip id="319" depart="255.20" from="5219282#2" to="4259730#0" type="car" />
    <trip id="320" depart="256.00" from="138578734" to="40635758#1" type="car" />
    <trip id="321" depart="256.80" from="5680506" to="40635001#2" type="car" />
    <trip id="322" depart="257.60" from="40635763" to="-95288246#5" type="car" />
    <trip id="323" depart="258.40" from="-26295170" to="8602379#0" type="car" />
    <trip id="324" depart="259.20" from="-40634996#2" to="100611543#1" type="car" />
    <trip id="325" depart="260.00" from="-113214452#1" to="-93282093#5" type="car" />
    <trip id="326" depart="260.80" from="8602394#1" to="-22181124#1" type="car" />
    <trip id="327" depart="261.60" from="-256787679#1" to="5219285" type="car" />
    <trip id="328" depart="262.40" from="-22181124#0" to="-5219540#2" type="car" />
    <trip id="329" depart="263.20" from="8114780#3" to="5217466#1" type="car" />
    <trip id="330" depart="264.00" from="8602375#1" to="-138151954#0" type="car" />
    <trip id="331" depart="264.80" from="132127115" to="5219548" type="car" />
    <trip id="332" depart="265.60" from="5219404#1" to="4259732#1" type="car" />
    <trip id="333" depart="266.40" from="236461646#3" to="100611546#0" type="car" />
    <trip id="334" depart="267.20" from="5217268#1" to="-50185493#0" type="car" />
    <trip id="335" depart="268.00" from="26517384#0" to="-235318228#0" type="car" />
    <trip id="336" depart="268.80" from="93282092" to="-132126524#0" type="car" />
    <trip id="337" depart="269.60" from="8602395" to="5219297" type="car" />
    <trip id="338" depart="270.40" from="-113219316" to="5219260#2" type="car" />
    <trip id="339" depart="271.20" from="95288246#1" to="5219561#0" type="car" />
    <trip id="340" depart="272.00" from="-26517424" to="-271331022#0" type="car" />
    <trip id="341" depart="272.80" from="-130803350" to="8602355#0" type="car" />
    <trip id="342" depart="273.60" from="-90177264" to="26517384#2" type="car" />
    <trip id="343" depart="274.40" from="132127114#0" to="-130911746#1" type="car" />
    <trip id="344" depart="275.20" from="135297376" to="-90177295" type="car" />
    <trip id="345" depart="276.00" from="-40634994#1" to="256787680#0" type="car" />
    <trip id="346" depart="276.80" from="-26294933#0" to="236461646#9" type="car" />
    <trip id="347" depart="277.60" from="256787704#2" to="-8295063#3" type="car" />
    <trip id="348" depart="278.40" from="135297379" to="-138151950" type="car" />
    <trip id="349" depart="279.20" from="-8114783#2" to="-50185493#3" type="car" />
    <trip id="350" depart="280.00" from="130995146#0" to="-26336491#1" type="car" />
    <trip id="351" depart="280.80" from="245807393#0" to="90177249" type="car" />
    <trip id="352" depart="281.60" from="90177331" to="5219262" type="car" />
    <trip id="353" depart="282.40" from="26310705#1" to="-235318232#0" type="car" />
    <trip id="354" depart="283.20" from="-130910802" to="-236462824" type="car" />
    <trip id="355" depart="284.00" from="-130775001#1" to="236367231" type="car" />
    <trip id="356" depart="284.80" from="26294933#4" to="245807392" type="car" />
    <trip id="357" depart="285.60" from="50185493#2" to="-113214452#1" type="car" />
    <trip id="358" depart="286.40" from="8602348#1" to="-8602422#1" type="car" />
    <trip id="359" depart="287.20" from="131003574" to="236462883#0" type="car" />
    <trip id="360" depart="288.00" from="8602329" to="-22181131" type="car" />
    <trip id="361" depart="288.80" from="-22181124#1" to="271331022#1" type="car" />
    <trip id="362" depart="289.60" from="5217362#1" to="130775001#0" type="car" />
    <trip id="363" depart="290.40" from="-5219624" to="39220854#0" type="car" />