<?xml version="1.0" encoding="UTF-8"?>

<!-- generated on Tue Apr 22 15:33:46 2014 by SUMO duarouter Version 0.18.0
<?xml version="1.0" encoding="UTF-8"?>

<configuration xmlns:xsi="http://www.w3.org/2001/XMLSchema-instance" xsi:noNamespaceSchemaLocation="http://sumo.sf.net/xsd/duarouterConfiguration.xsd">

    <input>
        <net-file value="aberdeen.net.xml"/>
        <trip-files value="trips.trips.xml"/>
        <route-files value="VehicleTypes.xml"/>
    </input>

    <output>
        <output-file value="routes.rou.xml"/>
        <vtype-output value=""/>
    </output>

    <processing>
        <ignore-errors value="true"/>
    </processing>

    <time>
        <begin value="0"/>
        <end value="3600.0"/>
    </time>

</configuration>
-->

<routes xmlns:xsi="http://www.w3.org/2001/XMLSchema-instance" xsi:noNamespaceSchemaLocation="http://sumo.sf.net/xsd/routes_file.xsd">
    <vType id="bus" length="10.00" maxSpeed="70.00" vClass="public_transport">
        <carFollowing-Krauss accel="0.80" decel="4.50" sigma="0.50"/>
    </vType>
    <route id="bus20" edges="
40634994#0
40634994#1
40634994#2
-113214452#1
-113214452#0
-93282093#8
-93282093#7
-93282093#6
-93282093#5
-93282093#4
-93282093#3
-93282093#2
-93282093#1
-93282093#0
-5218498#1
-5218498#0
5219681
-5218450#3
-5218450#2
-5218450#1
-5218450#0
184656307
95288245
95288246#0
95288246#1
95288246#2
95288246#3
95288246#4
95288246#5
95288246#6
95288246#7
95288246#8
40634997
-40634995#4
-40634995#3
-40634995#2
-40634995#1
-40634995#0
-40634994#2
5216983
5216960#3
5216960#4

"/>

 <route id="bus19WE" edges="
135297884#0
135297884#1
135297884#2
5217390#0
5217390#1
5217390#2
5217390#3
5217390#4
5217390#5
5217390#6
5217390#7
5217390#8
5217390#9
263562956#0
263562956#1
184656307
95288245
95288246#0
95288246#1
95288246#2
95288246#3
95288246#4
95288246#5
95288246#6
95288246#7
95288246#8
40634997
-40634995#4
-40634995#3
-40634995#2
-40634995#1
-40634995#0
-40634994#2
-40634994#1
-40634994#0
-5218451
"/>

 <route id="bus19EW" edges="
5218451
40634994#0
40634994#1
40634994#2
40634995#0
40634995#1
40634995#2
40634995#3
40634995#4
-40634997
-95288246#8
-95288246#7
-95288246#6
-95288246#5
-95288246#4
-95288246#3
-95288246#2
-95288246#1
-95288246#0
-95288245
-184656307
-263562956#1
-263562956#0
-5217390#9
-5217390#8
-5217390#7
-5217390#6
-5217390#5
-5217390#4
-5217390#3
-5217390#2
-5217390#1
-5217390#0
-135297884#2
-135297884#1
-135297884#0
"/>

 <route id="bus13EW" edges="
5671682#0
5671682#1
5671682#2
-3515024#1
-3515024#0
-40634996#2
-40634996#1
-40634996#0
-40634997
-95288246#8
-95288246#7
-95288246#6
-95288246#5
-95288246#4
-95288246#3
-95288246#2
-95288246#1
-95288246#0
-95288245
-184656307
-263562956#1
-263562956#0
-5217390#9
-5217390#8
-5217390#7
-5217390#6
-5217390#5
-5217390#4
-5217390#3
-5217390#2
-5217390#1
-5217390#0
5219410#0
5219410#1
5219410#2
22181131
"/>

<route id="bus13WE" edges="
-22181131 
-5219410#2
-5219410#1
-5219410#0
5217390#0
5217390#1
5217390#2
5217390#3
5217390#4
5217390#5
5217390#6
5217390#7
5217390#8
5217390#9
263562956#0
263562956#1
184656307
95288245
95288246#0
95288246#1
95288246#2
95288246#3
95288246#4
95288246#5
95288246#6
95288246#7
95288246#8
40634997
40634996#0
40634996#1
40634996#2
3515024#0
3515024#1
3515023
263489146#0
5671680
"/>

<route id="bus23WE" edges="
-22181131 
-5219410#2
-5219410#1
-5219410#0
5217390#0
5217390#1
5217390#2
5217390#3
5217390#4
5217390#5
5217390#6
5217390#7
5217390#8
5217390#9
263562956#0
263562956#1
184656307
95288245
95288246#0
95288246#1
95288246#2
95288246#3
95288246#4
95288246#5
95288246#6
95288246#7
95288246#8
40634997
40634996#0
40634996#1
40634996#2
3515024#0
3515024#1
5216960#0
5216960#1
5216960#2
5216960#3
5216960#4
"/>


 <route id="bus23EW" edges="
137150843#0
137150843#1
137150828
-3515023
-3515024#1
-3515024#0
-40634996#2
-40634996#1
-40634996#0
-40634997
-95288246#8
-95288246#7
-95288246#6
-95288246#5
-95288246#4
-95288246#3
-95288246#2
-95288246#1
-95288246#0
-95288245
-184656307
-263562956#1
-263562956#0
-5217390#9
-5217390#8
-5217390#7
-5217390#6
-5217390#5
-5217390#4
-5217390#3
-5217390#2
-5217390#1
-5217390#0
5219410#0
5219410#1
5219410#2
22181131
"/>

 <route id="bus17WE" edges="
-263562955#6
-263562955#5
-263562955#4
-263562955#3
-263562955#2
-263562955#1
-263562955#0
-8602214
263562956#0
263562956#1
184656307
95288245
95288246#0
95288246#1
95288246#2
95288246#3
95288246#4
95288246#5
95288246#6
95288246#7
95288246#8
40634997
-40634995#4
-40634995#3
-40634995#2
-40634995#1
-40634995#0
-40634994#2
-40634994#1
-40634994#0
-5218451
"/>


 <route id="bus17EW" edges="
5218451
40634994#0
40634994#1
40634994#2
40634995#0
40634995#1
40634995#2
40634995#3
40634995#4
-40634997
-95288246#8
-95288246#7
-95288246#6
-95288246#5
-95288246#4
-95288246#3
-95288246#2
-95288246#1
-95288246#0
-95288245
-184656307
-263562956#1
-263562956#0
8602214
263562955#0
263562955#1
263562955#2
263562955#3
263562955#4
263562955#5
263562955#6
"/>

  <flow id="bus20" type="bus" route="bus20" begin="0" end="28800" period="1200"/>
<flow id="bus19EW" type="bus" route="bus19EW" begin="0" end="28800" period="900"/>
<flow id="bus19WE" type="bus" route="bus19WE" begin="60" end="28800" period="900"/>


<flow id="bus13WE" type="bus" route="bus13WE" begin="60" end="28800" period="1200"/>
<flow id="bus13EW" type="bus" route="bus13EW" begin="120" end="28800" period="1200"/>
<!-- 18 has the same route as 19 in this area -->
<flow id="bus18WE" type="bus" route="bus19WE" begin="120" end="28800" period="900"/>
<flow id="bus17WE" type="bus" route="bus17WE" begin="240" end="28800" period="900"/>
<!-- 18 has the same route as 19 in this area -->
<flow id="bus18EW" type="bus" route="bus19EW" begin="240" end="28800" period="900"/>
<flow id="bus23WE" type="bus" route="bus23WE" begin="300" end="28800" period="600"/>
<!-- 15 has the same route as 13 in this area -->
<flow id="bus15EW" type="bus" route="bus13EW" begin="360" end="28800" period="1800"/>
<flow id="bus17EW" type="bus" route="bus17EW" begin="540" end="28800" period="900"/>
<flow id="bus15WE" type="bus" route="bus13WE" begin="540" end="28800" period="1800"/>
<flow id="bus23EW" type="bus" route="bus23EW" begin="600" end="28800" period="600"/>







</routes>
