<routes>
   <vType id="SUMO_DEFAULT_TYPE" accel="100" decel="100" sigma="1" length="1" maxspeed="1"/>
   <route id="from0" multi_ref="x" edges="0 1 2 3"/>
   <flow id="from0" type="SUMO_DEFAULT_TYPE" route="from0" begin="1" end="5002" period="1"/>
   <route id="from1" multi_ref="x" edges="1 2 3 0"/>
   <flow id="from1" type="SUMO_DEFAULT_TYPE" route="from1" begin="1" end="5003" period="1"/>
   <route id="from2" multi_ref="x" edges="2 3 0 1"/>
   <flow id="from2" type="SUMO_DEFAULT_TYPE" route="from2" begin="1" end="5004" period="1"/>
   <route id="from3" multi_ref="x" edges="3 0 1 2"/>
   <flow id="from3" type="SUMO_DEFAULT_TYPE" route="from3" begin="1" end="5005" period="1"/>
</routes>
