<?xml version="1.0"?>
<!-- generated on 2014-04-20 17:25:21.826140 by $Id: randomTrips.py 14425 2013-08-16 20:11:47Z behrisch $ -->
<trips>
    <trip id="0" depart="0.00" from="34a21193-201b-44b3-b031-e8c5059285d3" to="2d31a862-4d9d-4bf8-95d1-9db6a0c9a8d8" />
    <trip id="1" depart="1.00" from="efc1cccf-25b2-4079-8bb9-93b6292977b3" to="f294c13f-759d-4007-8673-aeefab02cd9a" />
    <trip id="2" depart="2.00" from="355cf141-3e54-4a67-a8fd-882b130a6928" to="496c14ee-485d-4b82-8c79-2eb6bb2766a8" />
    <trip id="3" depart="3.00" from="a99bea13-9795-4796-8dd6-1cfd4199f693" to="470fe698-8614-4a94-877b-1863d794550a" />
    <trip id="4" depart="4.00" from="84cbfc58-60f5-49c0-8a99-7445dfe67a3d" to="4a90047c-36bd-4e2a-a542-a4b672f46fb5" />
    <trip id="5" depart="5.00" from="f0b98d96-3e60-4ca4-9796-421dc527ce7f" to="79305cd2-cada-4b82-a875-2d28cd9830d0" />
    <trip id="6" depart="6.00" from="88843f9f-3b6f-4ca5-8de7-610978a5f522" to="9726a11c-6e9a-4e2b-ab03-85d14c46b26d" />
    <trip id="7" depart="7.00" from="2306f06a-2b11-45e2-bc7b-9267bdb94eb8" to="2bdcbec1-7d50-4564-9b9a-33f210ded753" />
    <trip id="8" depart="8.00" from="4d45412d-bb94-4a52-9531-93748b88c8a8" to="832e2c95-f765-4e46-a979-1bee128ef5bb" />
    <trip id="9" depart="9.00" from="8e8826a3-fe46-4a0b-968d-5aa695a62379" to="c354df02-f38e-46db-9e04-2a97e73cd767" />
    <trip id="10" depart="10.00" from="0b5a3a05-3a35-4a66-b72a-16c073dbb3c4" to="db044a78-7ceb-4769-9bf5-0c543e55e92e" />
    <trip id="11" depart="11.00" from="af5cac5a-dd20-4744-b51c-c2c729445940" to="44bc0ab7-bbdc-40be-a5e9-8941bada8a06" />
    <trip id="12" depart="12.00" from="348cd810-f0a4-435f-8ae6-fb357bf3e9c4" to="9726a11c-6e9a-4e2b-ab03-85d14c46b26d" />
    <trip id="13" depart="13.00" from="11266890-583b-42b4-947a-0ae79010cb60" to="cb258269-858b-4603-bb3a-56482480e31e" />
    <trip id="14" depart="14.00" from="2e67a7a0-3861-4c49-80f0-7541a86fb89b" to="75bd450d-a3eb-47a6-8046-e6405e6a65a6" />
    <trip id="15" depart="15.00" from="a2ec7d06-454a-4340-a8cc-ecea7a6b7f50" to="3d5e900c-1237-4118-ad5f-936a99881225" />
    <trip id="16" depart="16.00" from="678d3906-c103-4fa3-89d0-aeca2c6943bb" to="38cc3f90-5ee5-4748-839b-fb26557355fb" />
    <trip id="17" depart="17.00" from="5774ede9-011e-4bda-af8b-97cc7f4da166" to="420dffde-22be-4b44-a2c2-46742e549f81" />
    <trip id="18" depart="18.00" from="1c87fdf5-a63c-4ad4-976f-6d1dcb496615" to="024b6278-eec0-41ba-8df2-9395fafc22eb" />
    <trip id="19" depart="19.00" from="3ce3d5e0-c589-4be3-b943-a244e1be7ee0" to="6b222a4f-c14c-4540-847e-5e5bc9a16dfe" />
    <trip id="20" depart="20.00" from="d2712d43-dba2-49c8-ae39-e5f36031a904" to="f7942684-280d-484a-8d07-c609170500f3" />
    <trip id="21" depart="21.00" from="74b439c5-95cf-41dd-ac36-b6df6503a1aa" to="93d761fe-5ddb-4ffe-b698-511a430ac570" />
    <trip id="22" depart="22.00" from="9c379687-5cf8-4e56-999c-4bfe96e8c46f" to="adaf7f28-9ab1-4921-95ea-87a2bf007293" />
    <trip id="23" depart="23.00" from="272edb60-7af2-4feb-84bc-b652bdef4a0a" to="3b81de9f-635d-4df4-b52a-a08942812ad5" />
    <trip id="24" depart="24.00" from="12a73155-0c8e-496e-950a-8894d5660262" to="506a6ff9-ea8e-474a-9c8d-93176eb2f45a" />
    <trip id="25" depart="25.00" from="efaa6aec-4eef-465d-8ac3-97fe4d35832a" to="d4762de5-1c2b-405e-aa7f-a1fcc53b6389" />
    <trip id="26" depart="26.00" from="40c22bfc-c20c-4c87-918c-1e3538c88378" to="75a8d1d2-721d-4bb3-846c-7eb7953f0e58" />
    <trip id="27" depart="27.00" from="c6bd77ad-ff7d-45f1-964a-564deaa8f2c7" to="4b49f2bf-8708-48c8-9620-151e8cd652f6" />
    <trip id="28" depart="28.00" from="89ac6edf-5e0d-4171-9c36-cdb3731d0959" to="7c5e2481-fcb1-4418-8102-603096364b78" />
    <trip id="29" depart="29.00" from="2f974fed-c19d-44fd-86e7-8031e76460d5" to="51e8d06c-3b17-4681-a238-9db0055afdbb" />
    <trip id="30" depart="30.00" from="c5798f90-0faf-46b4-b903-79269db5c5f9" to="682f8e13-5388-45c6-8689-89f63b4d85c5" />
    <trip id="31" depart="31.00" from="554177ac-37a4-4342-9c5f-4594be69bc71" to="82617d98-0d13-4ec7-9361-2d37620a235c" />
    <trip id="32" depart="32.00" from="86d461f4-fd2e-41a2-91cb-ff0ff2caed3b" to="29552966-ccde-4f78-ab07-a3ce4380677e" />
    <trip id="33" depart="33.00" from="5f21da56-ec2a-41d9-94d9-aac9e751c6b3" to="ae3afd47-95a8-424e-8268-7c4b8d331463" />
    <trip id="34" depart="34.00" from="396ce750-180d-45ef-be18-eae663b2ad9e" to="f96d4eee-612e-44ec-abb1-57f91ffa1424" />
    <trip id="35" depart="35.00" from="9b081897-5df0-4894-962e-b8b8a7b9e68d" to="51783663-32e1-4dd0-afa6-3aacba6531e4" />
    <trip id="36" depart="36.00" from="c26d5dad-f30f-41d7-92d0-bffc53a74422" to="75e26903-5d1e-414f-96c3-7c78dd5e661e" />
    <trip id="37" depart="37.00" from="291baf53-96b7-4611-9bdd-769a1bab2d78" to="2495135f-5c5e-4bc0-83fd-a2f280e67977" />
    <trip id="38" depart="38.00" from="86455da8-cd27-4546-b189-c980efd34274" to="58bf76e0-ea8e-4f0d-9b2f-9f995044cfc4" />
    <trip id="39" depart="39.00" from="cc96d32d-ebca-4545-99cc-109cea3dca56" to="6173c144-30b1-4f64-b156-7b3158a585e3" />
    <trip id="40" depart="40.00" from="da9c3d97-20cc-43dc-861d-f5ed6c6f9b62" to="158b5df3-64ab-4bb3-8bff-b4b7cc9ceed8" />
    <trip id="41" depart="41.00" from="f1b10cd8-64d2-4e2e-aa63-88c11359e4f4" to="d3ea9cf2-17cf-460f-bb37-b449ca9c1955" />
    <trip id="42" depart="42.00" from="14b863ea-5683-41ec-b873-1a12d43426b5" to="c2a2cfb4-8b8b-4fa9-afc7-8d21661e3a45" />
    <trip id="43" depart="43.00" from="9ce00e45-3bb6-4399-bda8-809ccf4df7e0" to="f7038d31-3b61-4119-a7a9-578c29456983" />
    <trip id="44" depart="44.00" from="711d5c54-9e37-4c02-947c-82075fcbcfcb" to="582ff747-8e2b-46a9-bcb1-308c024b7a26" />
    <trip id="45" depart="45.00" from="80b22025-a767-4fd2-9f26-5c45c9cef499" to="934696b6-7c0f-4f43-8448-ec4e5f8cde00" />
    <trip id="46" depart="46.00" from="78eec1a3-c9cc-4665-b89e-98cfe5d28c82" to="d039e1d1-263c-43b8-aecb-47ad243033cb" />
    <trip id="47" depart="47.00" from="8891c487-b31e-46b4-a6e7-8f5e4f03bb37" to="ee6d7f1c-1017-4d28-accc-ae22b295bc36" />
    <trip id="48" depart="48.00" from="1b3c7c8a-730b-4226-8648-44aa44b7b9d0" to="9fde3d1a-7db3-494e-8ed6-e5887ff03399" />
    <trip id="49" depart="49.00" from="70cf00bf-4d49-4c69-b995-593b5a90fbe6" to="61cc0249-9f47-4b6f-aa78-bf76022cf1ca" />
    <trip id="50" depart="50.00" from="8ecda95a-b241-4e7a-a55f-285e15b8979b" to="31bcfec8-0f8f-4c8b-83c6-de1acdc8b8b8" />
    <trip id="51" depart="51.00" from="ec920713-2905-4fa9-b0e3-92b2f832d0e4" to="a33dfb5a-9de6-4ba4-9755-7faba0852d7c" />
    <trip id="52" depart="52.00" from="c87b3c0c-fe2f-43c8-a0b5-1c624d078d2f" to="a75c2ff2-28be-4ae9-b66a-c33128b98b6d" />
    <trip id="53" depart="53.00" from="8b50a5ac-1cf1-4ad7-a8a4-39a21cbbd31d" to="aa820662-f4e3-4213-bb24-78dc704f1f83" />
    <trip id="54" depart="54.00" from="131a1825-4366-4443-bb02-134e274dac25" to="3ea9c9ec-81ce-4c6a-b1b0-465eb0ebecaa" />
    <trip id="55" depart="55.00" from="5c25acf4-ab0d-4bf9-af67-24cb5dd4b1e0" to="e3197b44-ef64-4d82-92e4-2dd6c8c866fe" />
    <trip id="56" depart="56.00" from="676606f7-3135-4267-91ec-e6a47ae2fb6f" to="164294ba-3fc0-4a53-bb81-ba673660b468" />
    <trip id="57" depart="57.00" from="643f9245-afdb-4023-a1ef-d37ac94f146b" to="c354df02-f38e-46db-9e04-2a97e73cd767" />
    <trip id="58" depart="58.00" from="be41fc88-3e65-44b6-af10-3965233cd47e" to="d6447b8e-d9b2-48da-9e9d-b78166e413f3" />
    <trip id="59" depart="59.00" from="07be697d-1936-4d8c-bae8-0cd7d138079f" to="ba628489-5474-4af0-9f17-bf3e91dfb622" />
    <trip id="60" depart="60.00" from="c8f01139-6f45-4f06-a06e-15bc0c403654" to="2a39feaf-23b1-4531-98df-c680dd3e1486" />
    <trip id="61" depart="61.00" from="60b96a56-bb93-418a-a53b-fccc5322f4ed" to="7337ffc0-3e1e-4ff5-8be0-4f0e39b008af" />
    <trip id="62" depart="62.00" from="c239a02e-c746-4e5b-8245-9d71a3d1d058" to="8ecda95a-b241-4e7a-a55f-285e15b8979b" />
    <trip id="63" depart="63.00" from="ac6a8040-2463-4372-9de6-21443d218f9f" to="ade12421-5fcf-408e-92c9-c182c537019b" />
    <trip id="64" depart="64.00" from="272edb60-7af2-4feb-84bc-b652bdef4a0a" to="81e12a65-4bd3-4ae9-9214-d3d98d6e6bc9" />
    <trip id="65" depart="65.00" from="0b0ddeaf-5550-4146-9771-96b2dc63138c" to="7438b360-b888-41c0-bbca-44bf5b2b36fa" />
    <trip id="66" depart="66.00" from="c0b2f002-eb93-4142-a5b2-1e8d7ebf1b66" to="e8a85d4d-993a-44d2-8df7-de13a5d373b2" />
    <trip id="67" depart="67.00" from="66f9d07d-dc2c-4c9e-a989-9f57092024f2" to="9c379687-5cf8-4e56-999c-4bfe96e8c46f" />
    <trip id="68" depart="68.00" from="75e42417-8488-4f28-929a-64147837e2ab" to="179defa2-e867-47dd-bf46-f733aadc8173" />
    <trip id="69" depart="69.00" from="d9c718a7-817c-4c79-be1f-0cf167e0d187" to="5c895547-9565-4f1f-8338-058c3b9f11b2" />
    <trip id="70" depart="70.00" from="a292950d-daaa-4134-af49-4b48dc42bfa3" to="96c3b482-7745-4040-9128-087c55bfafdd" />
    <trip id="71" depart="71.00" from="358463d4-7b05-4a4b-83a6-1444b6e2fc19" to="dd13783a-4364-4abd-bece-8dc29277d0e2" />
    <trip id="72" depart="72.00" from="b38e5a5b-f88f-40be-984a-72508dfcb0af" to="7ca38431-4d81-4b3e-a8ce-4682cf624d38" />
    <trip id="73" depart="73.00" from="22fded98-583a-4013-a4e6-eb68b173d849" to="dff6779e-b47a-4462-918b-e7c41897d54d" />
    <trip id="74" depart="74.00" from="6761e300-0b20-4827-9595-22d2eebe2c7b" to="e88b199a-c671-4bc5-98a0-1e7edddb4746" />
    <trip id="75" depart="75.00" from="802508b0-53f8-44d9-9736-41bb84eee9fd" to="8cb0157f-f36b-4569-98e3-1c317ebaad0a" />
    <trip id="76" depart="76.00" from="334a1de7-7dc5-41ad-9257-8129767be66b" to="1a909357-b6f1-4bf6-aece-a2faf5d74c34" />
    <trip id="77" depart="77.00" from="c57f0013-f0e5-4d24-aab5-f283da3a2253" to="25f862b1-4cc0-4134-a819-4dd771c4f6b0" />
    <trip id="78" depart="78.00" from="9773f621-e4ec-4c44-984d-1410a23496fe" to="66bc1b9f-66dc-45bf-8866-98dc30a48f69" />
    <trip id="79" depart="79.00" from="bce3ecc2-6221-4083-96a3-f931f70886b7" to="7e712448-6582-4993-8359-76e46c362a69" />
    <trip id="80" depart="80.00" from="195e24f3-71a9-42b7-a155-30c0d30c7db5" to="ec620989-e5a5-408b-bde8-4280a39bad42" />
    <trip id="81" depart="81.00" from="8cd62ea9-ccc5-48c5-9657-6161835b96e3" to="bf1814b2-0135-4229-871d-f3221a7820a8" />
    <trip id="82" depart="82.00" from="85df78cd-b7b0-4e85-ba5c-7e08fa8eaacd" to="8be401e8-1a59-4210-b6c1-7385255a6e9d" />
    <trip id="83" depart="83.00" from="fdd77c76-16b9-49cc-86ec-375ea5c319bf" to="7f402a7c-82a6-4a25-8744-1b74917d5270" />
    <trip id="84" depart="84.00" from="274bbc46-b5ae-4b10-b561-f7ea3975e353" to="50ea06b3-8b20-4d66-9cfb-ecfe202866b9" />
    <trip id="85" depart="85.00" from="22d304e0-0a91-421a-8a0d-b96717ec182e" to="81b6865e-a742-4f77-bda3-4ee4e90c1a94" />
    <trip id="86" depart="86.00" from="efe33414-7b53-411f-bff1-2c6929d6586b" to="13dd0f02-58c2-4bf7-b862-03e284713e95" />
    <trip id="87" depart="87.00" from="fb1f3832-5758-4b74-b2f4-bab3bbb8257b" to="75cc190b-e3fa-4138-a480-d39e83680431" />
    <trip id="88" depart="88.00" from="f7699d7d-fcab-4a8d-bba4-da893ec61071" to="6f8a1e6e-4d29-4a57-b885-af0282dc0929" />
    <trip id="89" depart="89.00" from="7b23da3d-809f-4499-9dc8-47ea915efad5" to="3fa0aff0-aae0-493f-a8f0-562ec2365bf1" />
    <trip id="90" depart="90.00" from="54b67d3f-0aaf-4349-b117-9a7c78d426e9" to="e05f3a21-897a-4632-bcef-57fb351f4afa" />
    <trip id="91" depart="91.00" from="3e773ec7-8952-4e60-8d83-aa08dbcaf386" to="d2fe46a5-1942-4047-86bd-4fda33694a64" />
    <trip id="92" depart="92.00" from="b96d31aa-4942-4a38-abec-62ee7766ef06" to="52f67bc8-31f2-4f2b-874b-b3e3e7e26e77" />
    <trip id="93" depart="93.00" from="a2d107c9-6632-4b4d-8f15-292a89308895" to="4078bc2e-2c91-4967-89cb-a40f92efd365" />
    <trip id="94" depart="94.00" from="a2bdc9c4-908d-4437-9468-0346885a9bff" to="bc2dc00e-0034-4c7b-8895-f2c0ac000d40" />
    <trip id="95" depart="95.00" from="3d258f9f-fdf0-4fa6-8e4b-b9c47d00e9be" to="b1fd0f90-5f93-4e74-ad44-b806033e81d8" />
    <trip id="96" depart="96.00" from="4e02533e-1424-4b5c-8e3f-aa9a188f223a" to="1449cfe7-aa19-48e5-b742-16bdec016f40" />
    <trip id="97" depart="97.00" from="faeb1647-98c4-4a72-a0d7-55c8e6c2bd67" to="0a7c77e4-5401-4b19-aaba-92941f222100" />
    <trip id="98" depart="98.00" from="a7037f2f-55ac-417b-a786-612bc2cd5e1b" to="ec045ae6-ddeb-4104-a74d-0834d0b51aab" />
    <trip id="99" depart="99.00" from="887f7287-a880-4390-b55d-6266783e9527" to="c1b2f987-f38a-4d53-b86d-f096de8f1752" />
</trips>