<?xml version="1.0"?>
<!-- generated on 2014-04-21 17:22:17.968188 by $Id: randomTrips.py 14425 2013-08-16 20:11:47Z behrisch $ -->
<trips>
    <trip id="0" depart="0.00" from="1315ebb0-3223-4353-99b5-733af60a65af" to="b89c3636-4f37-4ebe-8524-a74fdab34e34" />
    <trip id="1" depart="1.00" from="34662a84-887b-43c0-9440-544063fb9e28" to="5b39ab0d-bb94-40d0-a51b-52c544d67131" />
    <trip id="2" depart="2.00" from="5a576d7e-c978-47c0-8773-7932e62af030" to="25487888-8268-4027-b538-5f615b768efe" />
    <trip id="3" depart="3.00" from="613dd108-0173-48ea-9efc-01faf46dc3c6" to="ecece677-51c6-4dd3-814f-91bda95df123" />
    <trip id="4" depart="4.00" from="b66238b4-2e11-45f3-ab34-9caeebdf38c7" to="f33d806a-9219-4497-bca1-699e2a0df5ab" />
    <trip id="5" depart="5.00" from="d5864b1e-390b-4371-88b3-9721583204ca" to="46b6972c-5277-4412-9419-78dddea425dc" />
    <trip id="6" depart="6.00" from="d680ad39-e636-42b4-811d-7371b4f70dce" to="85aa8db5-2c80-4088-acb4-157f047d1610" />
    <trip id="7" depart="7.00" from="5e70e44e-ce1c-4376-8806-ea4a44f2ef24" to="3534fa89-3406-4576-a492-396de2b3ea35" />
    <trip id="8" depart="8.00" from="0093df2a-9dbc-405d-87e6-7f350691efdf" to="c930c1cf-e1c6-4fcd-8a57-1a87875c93d2" />
    <trip id="9" depart="9.00" from="4024897d-b1dc-4845-b717-2d7af5b72182" to="3ac51499-cb4c-4e42-a7df-5ab30fb8d38b" />
    <trip id="10" depart="10.00" from="c6919845-3369-4bd2-af5c-258e45072644" to="6f00b87d-64fc-4876-aff9-aa069d77a0b5" />
    <trip id="11" depart="11.00" from="025dcab7-2a29-4869-ae19-e5a7838dde26" to="3ad317d4-46f7-45fb-b344-86869a233c31" />
    <trip id="12" depart="12.00" from="b03b192d-9d2d-4886-aea5-40afeef6f1ee" to="0627f28f-f6aa-4bc3-b03f-14c802a4ed23" />
    <trip id="13" depart="13.00" from="7d34a754-3b80-47d7-85b0-90b684161450" to="f4154cb6-7868-4ccb-835d-c946561efba9" />
    <trip id="14" depart="14.00" from="5af56da8-7627-4f91-8f48-318b87b41766" to="c4b227cb-715b-416d-9de8-037b820fd3e5" />
    <trip id="15" depart="15.00" from="440f970f-d285-40e2-b5ad-1246c14fdb83" to="33361448-4a38-4168-8b58-28d4107a3a8a" />
    <trip id="16" depart="16.00" from="97ace6e4-1cb4-4178-8982-4378c5e0f309" to="73733b6b-5ae5-4fbe-93c4-7b332cb4a921" />
    <trip id="17" depart="17.00" from="46adc9b7-a5e2-4ef9-a292-9e786e14aef6" to="fa526dee-077e-40e5-82e2-b2cf62757740" />
    <trip id="18" depart="18.00" from="9dfee69c-8f31-4f1b-818f-40f4eaa84ed6" to="6680c9e3-433f-4797-8628-441f40b143e9" />
    <trip id="19" depart="19.00" from="719840dc-5ebe-45e3-88a2-a0b5461d7e4d" to="0093df2a-9dbc-405d-87e6-7f350691efdf" />
    <trip id="20" depart="20.00" from="f7616318-2b26-4528-a38c-444e8f18a2c3" to="22ad94a0-137f-487a-a88f-d0f4b543c28d" />
    <trip id="21" depart="21.00" from="731dd6eb-9ce8-4ff3-84e1-a3b978d02bb9" to="d82eb45b-ef85-4ab6-ab36-7060e5c754be" />
    <trip id="22" depart="22.00" from="0480655b-2cd9-4491-a26a-95f71e5885d8" to="3a1a5e97-3382-4a45-ac13-6da9417c115e" />
    <trip id="23" depart="23.00" from="d6fb6722-9f50-4f5e-846b-ca1798438d04" to="0fb94568-e248-46be-abb2-a3a4690cc90c" />
    <trip id="24" depart="24.00" from="89e17a35-aeab-4ffa-88be-d75118387d69" to="8d21046b-75d2-4b23-a799-bbded97a817e" />
    <trip id="25" depart="25.00" from="20edc386-16a6-4952-bf82-5b080b30fe5c" to="52a5379a-40f1-49d3-b994-5c9d7d1b05ba" />
    <trip id="26" depart="26.00" from="52ec5eda-ea5d-4622-a602-c4d2b08d1431" to="de1e0c0e-972f-41f9-9730-ad4354de0934" />
    <trip id="27" depart="27.00" from="e13b04e2-78c2-4da5-b267-942c38240b3e" to="db40f380-c8b3-4d6b-b8ea-78a67d1c2a6b" />
    <trip id="28" depart="28.00" from="ad05bc58-edb1-4708-8ab5-429d8bf9dd82" to="b8b80bd2-dbbc-4033-9f10-a1d336435d9b" />
    <trip id="29" depart="29.00" from="31204609-4e3e-41a2-88b2-a1ad4d6fd865" to="f3184033-2b9d-40d0-a591-9a4d6134d4af" />
    <trip id="30" depart="30.00" from="cdcf8492-7f61-4257-b735-a38929733033" to="61355873-35b6-48fc-9fab-514e066e04c2" />
    <trip id="31" depart="31.00" from="1aa31ef6-c6d8-4e7c-ae30-97b980cb26c4" to="19bb76e8-5b8b-425f-a400-6fe589d7d1ff" />
    <trip id="32" depart="32.00" from="12582382-8b7a-4654-a818-85ed930832ed" to="5fc79b21-4937-4d9f-ba00-b532fac3b3ce" />
    <trip id="33" depart="33.00" from="818432c7-2c7c-4d7b-8463-a9b270d156f2" to="841d8963-58da-47b2-8de4-5a3a98013e00" />
    <trip id="34" depart="34.00" from="05791809-1792-475c-af48-634808ba51fa" to="06732c56-714f-44c0-b414-848712cbced3" />
    <trip id="35" depart="35.00" from="ab41fcff-7432-4c7f-8e50-c873df898a23" to="07b075cc-99e1-4404-855e-f877e7675d0d" />
    <trip id="36" depart="36.00" from="7bba2a8d-609f-4a1f-97f8-852b7a084d1e" to="a1252fed-6bfa-43b8-b6d3-eeac39b36b87" />
    <trip id="37" depart="37.00" from="d42c78cb-cef9-49ca-8cd9-b802e656dea6" to="f0282467-ae7e-4353-849c-be6f1560c763" />
    <trip id="38" depart="38.00" from="dd3b76a7-4b62-4296-86ee-32c49f9d3cf2" to="04cd9bf9-687f-430f-9c33-18f59d9bc81d" />
    <trip id="39" depart="39.00" from="cca3f5a6-b3ea-4539-8d02-a9af65e04b58" to="1977adfa-3e8a-4efc-a7a8-88e9e3e14bdb" />
    <trip id="40" depart="40.00" from="025dcab7-2a29-4869-ae19-e5a7838dde26" to="9c7f5ea0-589c-4ce5-8c02-1dcb6a7ba9ee" />
    <trip id="41" depart="41.00" from="0cfdd42f-be85-48c2-a927-dcf14e4ca5be" to="6015be0a-8872-4650-b22c-22c2725777a0" />
    <trip id="42" depart="42.00" from="42ff2c26-15a4-459d-b7b1-3fc60f5d8767" to="409ad41d-036a-44c7-99aa-2503fd2935bd" />
    <trip id="43" depart="43.00" from="4ed36d4d-7068-4402-b96c-471137dc6b9f" to="f26ba659-72cb-44ee-bf5e-05d05ee62d34" />
    <trip id="44" depart="44.00" from="41d6b9cd-0e6d-4a84-83c7-148e0ca5a789" to="e5177f84-ed5d-45f2-b8f6-2ea01929ed3b" />
    <trip id="45" depart="45.00" from="f47856e0-eb06-4752-83ea-0ddfbf0e4091" to="5739d790-f78c-40a8-b7ce-a5d76be3650f" />
    <trip id="46" depart="46.00" from="e1f29327-2970-4bde-839e-573f8abde59a" to="9f4af42a-2204-4313-932c-5708e3972a28" />
    <trip id="47" depart="47.00" from="247b3ff8-02e3-4e29-8c8e-cd839bfc4de9" to="e75cf464-61ff-4ed7-9b0b-b0bb6556c27a" />
    <trip id="48" depart="48.00" from="c1629df9-95fb-426b-9fa3-46c03911ba1b" to="9be7e357-5a7f-4801-8452-a4a192fbef6c" />
    <trip id="49" depart="49.00" from="eb0a5536-7743-44c0-b249-b6ae7dab00c3" to="1d8e958f-5d7f-49c4-8c7f-4655032969a0" />
    <trip id="50" depart="50.00" from="06af9298-e929-4072-8291-be53bab1c2d7" to="dabd3fa8-0f96-4033-a993-7054ffc8976e" />
    <trip id="51" depart="51.00" from="fe7589bc-21d6-4c97-8f30-0044b8c8d966" to="07602aa7-bb1c-4226-8f0a-05feb8d3b57e" />
    <trip id="52" depart="52.00" from="c98ac332-25f6-4fb6-929e-66f90e29fc0c" to="f45369d4-a552-4e12-b2ef-5130333e2872" />
    <trip id="53" depart="53.00" from="84727962-a77f-4836-ab98-c3dd5e217815" to="226a3987-3b74-4113-a9ac-1a15f1c47bd7" />
    <trip id="54" depart="54.00" from="6b26215c-3d81-487c-82ca-36dbb6f14379" to="334a1de7-7dc5-41ad-9257-8129767be66b" />
    <trip id="55" depart="55.00" from="7c8e8246-47d5-4d9b-9584-ee4170cd3bc2" to="2e67a7a0-3861-4c49-80f0-7541a86fb89b" />
    <trip id="56" depart="56.00" from="b41772c0-fefd-45be-9dea-5d158c0cb516" to="348cd810-f0a4-435f-8ae6-fb357bf3e9c4" />
    <trip id="57" depart="57.00" from="500db098-a508-473a-ab56-7a7f36d8e140" to="9bffb329-a3b0-4fb3-a356-0c00d04d5859" />
    <trip id="58" depart="58.00" from="e0ac99b5-ec92-4024-ad34-941918de2083" to="9cbd41bf-a370-4860-bfce-693328ec9a99" />
    <trip id="59" depart="59.00" from="13b93fde-5796-4e61-aa49-f1dbdc1daada" to="e9f3db7c-c887-4c82-b1a1-d891db3cf6d8" />
    <trip id="60" depart="60.00" from="33ee98e8-885e-4e2b-a928-9c0587a31d61" to="b4b7778c-629b-44d9-b86c-447fbeb8116c" />
    <trip id="61" depart="61.00" from="6a233a99-d95c-45ff-8bec-94bc843d6911" to="8a23d842-d05c-4f7c-aa8a-030f8b1b9ba6" />
    <trip id="62" depart="62.00" from="1e85ad1f-82de-4e8b-b4a8-0d817b756fc7" to="863f286b-f5a7-4efc-803d-ca93e226b324" />
    <trip id="63" depart="63.00" from="11cd5e4d-7678-49d7-af07-e5fa50d7e2ce" to="0aa9f0dc-aaaa-40ed-927b-b8c2b66abb78" />
    <trip id="64" depart="64.00" from="b2eb266d-b313-4aab-8111-cfb042993fcc" to="a614ecda-c5a8-43d9-b827-1d8cea6f0433" />
    <trip id="65" depart="65.00" from="0c3a2c36-e497-4081-9e3d-71dfaa2a333c" to="e7c3697d-cb88-4c9c-946c-ef2610147cb2" />
    <trip id="66" depart="66.00" from="7f658fd3-ec68-4ded-b954-cd7c07cfcb29" to="262b7791-4db7-402d-b53f-d31af4883a77" />
    <trip id="67" depart="67.00" from="a0c90163-610c-458b-93ac-0e8c72830bf7" to="9757cfc9-b22b-4c3d-b8fa-900844335469" />
    <trip id="68" depart="68.00" from="55d18ef3-1333-4c60-9377-123f874024c1" to="310e829b-1cfa-4895-9c79-bd692443bc92" />
    <trip id="69" depart="69.00" from="dc0ec911-cc74-4c57-a6ec-497b077c86c6" to="6112f493-27c9-487a-8f3a-047b361e62fc" />
    <trip id="70" depart="70.00" from="88f1316b-b7ba-45b6-bea5-e95f9d13bd76" to="8ae6356d-4323-4cec-af4b-0f65ffca49e9" />
    <trip id="71" depart="71.00" from="ece7bff7-6589-4886-9375-79c72e53a526" to="897af368-900d-4e2d-a727-c85ddd6519d0" />
    <trip id="72" depart="72.00" from="14a7b56b-5f16-484b-8177-b2d896fce7e2" to="1d47a1be-7952-485a-ae56-8e23a798b327" />
    <trip id="73" depart="73.00" from="4f4c3443-7ab4-4658-bb5b-ae59caf0422f" to="8a72c7a9-cf52-4cf8-827b-637a5f688979" />
    <trip id="74" depart="74.00" from="eb0a13a0-10aa-4c8f-98e9-d2ec922d36a9" to="34e7a293-dec4-42e9-9bd9-d4616a6f24cb" />
    <trip id="75" depart="75.00" from="80dfe790-fee7-409d-aea8-6df856bb1b65" to="a8d10d4d-69c9-4884-975a-3e6c432232e8" />
    <trip id="76" depart="76.00" from="96c683e1-baa3-4ddf-a3a9-44ba25c62887" to="6d57129e-8677-4855-a206-d35873f5dbcb" />
    <trip id="77" depart="77.00" from="3d510ffc-52e9-4e27-b901-4fff1864b0ff" to="13e5ac64-55a2-44ed-9c6e-451e4a114b50" />
    <trip id="78" depart="78.00" from="faa7e5fe-3bda-4424-88ed-13e05366788e" to="e2b17c43-68bc-4bba-aab0-c1eac34f42c8" />
    <trip id="79" depart="79.00" from="9a6eaae4-ea6e-483c-8f69-afcb048eaca3" to="0e28a695-7304-4645-91d0-78e7b7da9f85" />
    <trip id="80" depart="80.00" from="4700136b-1a01-42d0-bd06-cdd3a5e71736" to="0a8a576a-7b26-4c4a-becf-5d59e559a1b3" />
    <trip id="81" depart="81.00" from="10c785e8-e1b6-4601-9511-5a33140f2043" to="126a5e86-c9ec-429e-b331-916f9093b364" />
    <trip id="82" depart="82.00" from="a8d9405e-effc-451f-aad2-e9a782073a26" to="4121fbf3-6a64-4e3f-b4f5-17c5fe26753b" />
    <trip id="83" depart="83.00" from="a8434635-c734-478d-95d7-0941fe56f146" to="3ac6afed-843a-4a8b-b3f8-15d528cb310c" />
    <trip id="84" depart="84.00" from="825e433a-74fe-4ec8-b6f6-15f882c419e9" to="f0db9193-f8d7-4601-bea7-80498c949052" />
    <trip id="85" depart="85.00" from="39a2e2f9-472f-4f08-8384-21e36a053049" to="be830083-f49b-4bac-9688-0a36229a4ba4" />
    <trip id="86" depart="86.00" from="a2804270-4d0f-4730-b37c-ab2e6ed84838" to="6523d2f0-5621-474b-80bc-e283f2b87ba7" />
    <trip id="87" depart="87.00" from="3d25b3e2-e27f-48ab-9da0-dbce58afeaf1" to="2f895498-a39f-4f82-bdfa-a38d5073ddb1" />
    <trip id="88" depart="88.00" from="37c0477a-c08b-482c-b469-115b4dc47190" to="ce6a49ca-bca1-4bbe-83ab-e3c3bfb96325" />
    <trip id="89" depart="89.00" from="f272f01a-7dab-4761-8c78-7c405be9741d" to="6d5a06d7-6473-4ae3-aebc-56b0c6384e27" />
    <trip id="90" depart="90.00" from="96e33478-9494-4b89-a33f-d13e25ed4403" to="c3aaa164-53e0-4faa-82c7-83feb111601c" />
    <trip id="91" depart="91.00" from="bcfff775-99f6-44b3-a3e2-dfa20965d799" to="0762ed2a-6d5a-47b4-bbdf-85013c89a0ff" />
    <trip id="92" depart="92.00" from="e8a7403c-6cb9-4276-91b9-7e483b898b8e" to="7651ba52-9439-48e8-941e-23a50c617d99" />
    <trip id="93" depart="93.00" from="2cea1ab4-660d-4e81-9c62-d2befacff9ad" to="d8d17ab9-f455-4eb0-b434-431fbe22ab0a" />
    <trip id="94" depart="94.00" from="2c95195b-e793-4a66-a9e9-56f7682a34a5" to="49402729-1d28-4075-b8b5-38f9389645c9" />
    <trip id="95" depart="95.00" from="d68fd4d3-1a33-4990-a44b-cb10824c7403" to="4e760ce1-1c39-4453-ba4e-6a9524dcb5ba" />
    <trip id="96" depart="96.00" from="b578476f-3dfd-400c-8a46-0467c58bcc23" to="80347849-46b4-44e5-9236-d605f1b027d3" />
    <trip id="97" depart="97.00" from="b4f6ddd6-7803-44f2-852e-cb913faa2b95" to="d926b673-05f3-43dd-b941-63634ad996fa" />
    <trip id="98" depart="98.00" from="d926b4d8-533b-4a36-ac7b-7ae786bde6b6" to="09fd8219-cb5f-41ac-b787-1dfc7108f9f0" />
    <trip id="99" depart="99.00" from="b3cf80a4-fcc7-4318-8437-65b0382c6d24" to="054bd81f-a34e-42d4-af0d-7b8140606ecd" />
</trips>