<?xml version="1.0" encoding="UTF-8"?>

<!-- generated on Tue Apr 22 14:18:59 2014 by SUMO netconvert Version 0.18.0
<?xml version="1.0" encoding="UTF-8"?>

<configuration xmlns:xsi="http://www.w3.org/2001/XMLSchema-instance" xsi:noNamespaceSchemaLocation="http://sumo.sf.net/xsd/netconvertConfiguration.xsd">

    <input>
        <type-files value="osm-urban-de.typ.xml"/>
        <osm-files value="aberdeenCentral.osm"/>
    </input>

    <output>
        <output-file value="aberdeen.net.xml"/>
    </output>

    <projection>
        <proj.utm value="true"/>
    </projection>

    <processing>
        <lefthand value="true"/>
    </processing>

</configuration>
-->

<net version="0.13" xmlns:xsi="http://www.w3.org/2001/XMLSchema-instance" xsi:noNamespaceSchemaLocation="http://sumo.sf.net/xsd/net_file.xsd">

    <location netOffset="-552845.11,-6333169.56" convBoundary="0.00,0.00,2378.37,1713.59" origBoundary="-2.126723,57.138540,-2.087330,57.153954" projParameter="+proj=utm +zone=30 +ellps=WGS84 +datum=WGS84 +units=m +no_defs"/>

    <edge id=":1036417483_0" function="internal">
        <lane id=":1036417483_0_0" index="0" speed="8.94" length="0.10" shape="844.41,642.53 844.41,642.52"/>
    </edge>
    <edge id=":1036417483_1" function="internal">
        <lane id=":1036417483_1_0" index="0" speed="11.41" length="2.45" shape="844.41,642.53 844.89,642.06 845.40,641.84 845.97,641.86 846.57,642.13"/>
    </edge>
    <edge id=":1036417483_2" function="internal">
        <lane id=":1036417483_2_0" index="0" speed="8.94" length="4.82" shape="844.41,642.53 845.82,642.05 846.73,642.23 847.13,643.06 847.02,644.55"/>
    </edge>
    <edge id=":1036417483_3" function="internal">
        <lane id=":1036417483_3_0" index="0" speed="11.41" length="2.45" shape="844.86,644.95 845.47,645.21 846.03,645.23 846.55,645.01 847.02,644.55"/>
    </edge>
    <edge id=":1036417483_4" function="internal">
        <lane id=":1036417483_4_0" index="0" speed="11.41" length="2.89" shape="844.86,644.95 844.24,644.43 843.96,643.86 844.02,643.22 844.41,642.52"/>
    </edge>
    <edge id=":1036417483_5" function="internal">
        <lane id=":1036417483_5_0" index="0" speed="13.89" length="4.82" shape="844.86,644.95 844.23,643.60 844.31,642.68 845.09,642.19 846.57,642.13"/>
    </edge>
    <edge id=":1036417483_6" function="internal">
        <lane id=":1036417483_6_0" index="0" speed="11.41" length="2.89" shape="847.02,644.55 847.42,643.85 847.48,643.21 847.19,642.64 846.57,642.13"/>
    </edge>
    <edge id=":1036417483_7" function="internal">
        <lane id=":1036417483_7_0" index="0" speed="8.94" length="0.10" shape="847.02,644.55 847.02,644.55"/>
    </edge>
    <edge id=":1036417483_8" function="internal">
        <lane id=":1036417483_8_0" index="0" speed="8.94" length="4.82" shape="847.02,644.55 845.61,645.02 844.70,644.84 844.31,644.01 844.41,642.52"/>
    </edge>
    <edge id=":1036417484_0" function="internal">
        <lane id=":1036417484_0_0" index="0" speed="13.89" length="4.82" shape="823.20,627.90 823.83,629.24 823.75,630.16 822.97,630.65 821.48,630.71"/>
    </edge>
    <edge id=":1036417486_0" function="internal">
        <lane id=":1036417486_0_0" index="0" speed="13.41" length="0.10" shape="791.74,517.72 791.74,517.72"/>
    </edge>
    <edge id=":1036417486_1" function="internal">
        <lane id=":1036417486_1_0" index="0" speed="11.18" length="2.65" shape="791.74,517.72 791.64,518.44 791.34,518.96 790.82,519.27 790.11,519.38"/>
    </edge>
    <edge id=":1036417486_2" function="internal">
        <lane id=":1036417486_2_0" index="0" speed="13.41" length="2.41" shape="791.74,517.72 790.92,518.96 790.10,519.38"/>
    </edge>
    <edge id=":1036417486_9" function="internal">
        <lane id=":1036417486_9_0" index="0" speed="13.41" length="2.41" shape="790.10,519.38 789.27,518.98 788.44,517.74"/>
    </edge>
    <edge id=":1036417486_3" function="internal">
        <lane id=":1036417486_3_0" index="0" speed="11.18" length="2.65" shape="790.07,516.08 789.35,516.19 788.84,516.51 788.54,517.02 788.44,517.74"/>
    </edge>
    <edge id=":1036417486_4" function="internal">
        <lane id=":1036417486_4_0" index="0" speed="11.18" length="2.66" shape="790.07,516.08 790.79,516.18 791.31,516.48 791.63,517.00 791.74,517.72"/>
    </edge>
    <edge id=":1036417486_5" function="internal">
        <lane id=":1036417486_5_0" index="0" speed="8.94" length="4.82" shape="790.07,516.08 791.32,516.89 791.74,517.71 791.33,518.54 790.11,519.38"/>
    </edge>
    <edge id=":1036417486_6" function="internal">
        <lane id=":1036417486_6_0" index="0" speed="11.18" length="2.66" shape="788.44,517.75 788.55,518.47 788.86,518.98 789.38,519.29 790.11,519.38"/>
    </edge>
    <edge id=":1036417486_7" function="internal">
        <lane id=":1036417486_7_0" index="0" speed="13.41" length="0.10" shape="788.44,517.75 788.44,517.74"/>
    </edge>
    <edge id=":1036417486_8" function="internal">
        <lane id=":1036417486_8_0" index="0" speed="13.41" length="2.41" shape="788.44,517.75 789.25,516.50 790.07,516.08"/>
    </edge>
    <edge id=":1036417486_10" function="internal">
        <lane id=":1036417486_10_0" index="0" speed="13.41" length="2.41" shape="790.07,516.08 790.90,516.49 791.74,517.72"/>
    </edge>
    <edge id=":1036417490_0" function="internal">
        <lane id=":1036417490_0_0" index="0" speed="7.64" length="3.12" shape="901.87,731.07 901.01,730.84 900.35,730.97 899.88,731.46 899.60,732.30"/>
    </edge>
    <edge id=":1036417490_1" function="internal">
        <lane id=":1036417490_1_0" index="0" speed="13.89" length="0.10" shape="901.87,731.07 901.87,731.07"/>
    </edge>
    <edge id=":1036417490_2" function="internal">
        <lane id=":1036417490_2_0" index="0" speed="13.89" length="2.41" shape="901.87,731.07 902.68,732.31 902.74,733.23"/>
    </edge>
    <edge id=":1036417490_9" function="internal">
        <lane id=":1036417490_9_0" index="0" speed="13.89" length="2.41" shape="902.74,733.23 902.04,733.83 900.58,734.11"/>
    </edge>
    <edge id=":1036417490_3" function="internal">
        <lane id=":1036417490_3_0" index="0" speed="13.89" length="0.10" shape="900.58,734.11 900.58,734.11"/>
    </edge>
    <edge id=":1036417490_4" function="internal">
        <lane id=":1036417490_4_0" index="0" speed="7.64" length="2.25" shape="900.58,734.11 900.06,733.80 899.73,733.40 899.57,732.90 899.60,732.30"/>
    </edge>
    <edge id=":1036417490_5" function="internal">
        <lane id=":1036417490_5_0" index="0" speed="13.89" length="2.41" shape="900.58,734.11 899.76,732.86 899.70,731.94"/>
    </edge>
    <edge id=":1036417490_10" function="internal">
        <lane id=":1036417490_10_0" index="0" speed="13.89" length="2.41" shape="899.70,731.94 900.41,731.35 901.87,731.07"/>
    </edge>
    <edge id=":1036417490_6" function="internal">
        <lane id=":1036417490_6_0" index="0" speed="7.64" length="2.25" shape="902.85,732.88 902.87,732.28 902.72,731.78 902.38,731.38 901.87,731.07"/>
    </edge>
    <edge id=":1036417490_7" function="internal">
        <lane id=":1036417490_7_0" index="0" speed="7.64" length="3.12" shape="902.85,732.88 902.57,733.72 902.09,734.21 901.43,734.33 900.58,734.11"/>
    </edge>
    <edge id=":1036417490_8" function="internal">
        <lane id=":1036417490_8_0" index="0" speed="1.39" length="4.82" shape="902.85,732.88 901.81,733.95 900.93,734.21 900.19,733.66 899.60,732.30"/>
    </edge>
    <edge id=":1036417491_0" function="internal">
        <lane id=":1036417491_0_0" index="0" speed="13.89" length="4.82" shape="943.37,804.06 942.28,803.05 942.00,802.17 942.54,801.42 943.89,800.81"/>
    </edge>
    <edge id=":1036417515_0" function="internal">
        <lane id=":1036417515_0_0" index="0" speed="13.89" length="0.10" shape="890.47,802.59 890.50,802.60"/>
    </edge>
    <edge id=":1036417515_1" function="internal">
        <lane id=":1036417515_1_0" index="0" speed="7.64" length="2.22" shape="890.47,802.59 890.99,802.87 891.34,803.25 891.53,803.73 891.54,804.32"/>
    </edge>
    <edge id=":1036417515_2" function="internal">
        <lane id=":1036417515_2_0" index="0" speed="13.89" length="2.41" shape="890.47,802.59 891.34,803.79 891.45,804.71"/>
    </edge>
    <edge id=":1036417515_9" function="internal">
        <lane id=":1036417515_9_0" index="0" speed="13.89" length="2.41" shape="891.45,804.71 890.78,805.34 889.33,805.69"/>
    </edge>
    <edge id=":1036417515_3" function="internal">
        <lane id=":1036417515_3_0" index="0" speed="7.64" length="2.22" shape="888.26,803.96 888.27,804.55 888.46,805.03 888.81,805.41 889.33,805.69"/>
    </edge>
    <edge id=":1036417515_4" function="internal">
        <lane id=":1036417515_4_0" index="0" speed="7.64" length="3.21" shape="888.26,803.96 888.49,803.07 888.94,802.55 889.61,802.39 890.50,802.60"/>
    </edge>
    <edge id=":1036417515_5" function="internal">
        <lane id=":1036417515_5_0" index="0" speed="1.39" length="4.82" shape="888.26,803.96 889.22,802.82 890.08,802.50 890.86,803.00 891.54,804.32"/>
    </edge>
    <edge id=":1036417515_6" function="internal">
        <lane id=":1036417515_6_0" index="0" speed="7.64" length="3.21" shape="889.30,805.68 890.19,805.88 890.86,805.73 891.31,805.21 891.54,804.32"/>
    </edge>
    <edge id=":1036417515_7" function="internal">
        <lane id=":1036417515_7_0" index="0" speed="13.89" length="0.10" shape="889.30,805.68 889.33,805.69"/>
    </edge>
    <edge id=":1036417515_8" function="internal">
        <lane id=":1036417515_8_0" index="0" speed="13.89" length="2.41" shape="889.30,805.68 888.45,804.46 888.36,803.54"/>
    </edge>
    <edge id=":1036417515_10" function="internal">
        <lane id=":1036417515_10_0" index="0" speed="13.89" length="2.41" shape="888.36,803.54 889.05,802.92 890.50,802.60"/>
    </edge>
    <edge id=":1036417525_0" function="internal">
        <lane id=":1036417525_0_0" index="0" speed="1.39" length="0.11" shape="890.82,781.07 890.80,781.18"/>
    </edge>
    <edge id=":1036417525_1" function="internal">
        <lane id=":1036417525_1_0" index="0" speed="1.39" length="1.98" shape="890.82,781.07 890.97,780.57 891.24,780.18 891.62,779.91 892.12,779.74"/>
    </edge>
    <edge id=":1036417525_2" function="internal">
        <lane id=":1036417525_2_0" index="0" speed="1.39" length="9.12" shape="890.82,781.07 891.59,777.92 892.38,776.87 893.20,777.90 894.06,781.03"/>
    </edge>
    <edge id=":1036417525_3" function="internal">
        <lane id=":1036417525_3_0" index="0" speed="1.39" length="4.82" shape="890.82,781.07 891.85,780.00 892.73,779.74 893.47,780.29 894.06,781.65"/>
    </edge>
    <edge id=":1036417525_4" function="internal">
        <lane id=":1036417525_4_0" index="0" speed="1.39" length="9.12" shape="890.82,781.70 891.68,784.82 892.50,785.86 893.30,784.80 894.06,781.65"/>
    </edge>
    <edge id=":1036417525_5" function="internal">
        <lane id=":1036417525_5_0" index="0" speed="1.39" length="0.52" shape="890.82,781.70 890.80,781.18"/>
    </edge>
    <edge id=":1036417525_6" function="internal">
        <lane id=":1036417525_6_0" index="0" speed="1.39" length="2.67" shape="890.82,781.70 890.78,780.96 890.98,780.39 891.42,779.99 892.12,779.74"/>
    </edge>
    <edge id=":1036417525_7" function="internal">
        <lane id=":1036417525_7_0" index="0" speed="1.39" length="4.82" shape="890.82,781.70 891.38,780.32 892.11,779.74 893.00,779.98 894.06,781.03"/>
    </edge>
    <edge id=":1036417525_8" function="internal">
        <lane id=":1036417525_8_0" index="0" speed="1.39" length="2.67" shape="892.77,782.98 893.46,782.73 893.90,782.33 894.10,781.76 894.06,781.03"/>
    </edge>
    <edge id=":1036417525_9" function="internal">
        <lane id=":1036417525_9_0" index="0" speed="1.39" length="1.98" shape="892.77,782.98 893.26,782.81 893.64,782.54 893.91,782.15 894.06,781.65"/>
    </edge>
    <edge id=":1036417525_10" function="internal">
        <lane id=":1036417525_10_0" index="0" speed="1.39" length="3.32" shape="892.77,782.98 891.81,783.03 891.17,782.75 890.83,782.13 890.80,781.18"/>
    </edge>
    <edge id=":1036417525_11" function="internal">
        <lane id=":1036417525_11_0" index="0" speed="1.39" length="4.82" shape="892.77,782.98 891.39,782.41 890.82,781.69 891.06,780.80 892.12,779.74"/>
    </edge>
    <edge id=":1036417525_12" function="internal">
        <lane id=":1036417525_12_0" index="0" speed="1.39" length="3.32" shape="894.08,781.54 894.05,780.59 893.71,779.97 893.07,779.69 892.12,779.74"/>
    </edge>
    <edge id=":1036417525_13" function="internal">
        <lane id=":1036417525_13_0" index="0" speed="1.39" length="0.52" shape="894.08,781.54 894.06,781.03"/>
    </edge>
    <edge id=":1036417525_14" function="internal">
        <lane id=":1036417525_14_0" index="0" speed="1.39" length="0.11" shape="894.08,781.54 894.06,781.65"/>
    </edge>
    <edge id=":1036417525_15" function="internal">
        <lane id=":1036417525_15_0" index="0" speed="1.39" length="4.82" shape="894.08,781.54 893.12,782.68 892.26,783.00 891.48,782.50 890.80,781.18"/>
    </edge>
    <edge id=":1045473769_0" function="internal">
        <lane id=":1045473769_0_0" index="0" speed="13.89" length="4.82" shape="997.84,1258.01 996.39,1258.33 995.51,1258.05 995.20,1257.18 995.47,1255.72"/>
    </edge>
    <edge id=":1045473791_0" function="internal">
        <lane id=":1045473791_0_0" index="0" speed="8.94" length="3.19" shape="880.92,1179.35 878.87,1181.80"/>
    </edge>
    <edge id=":1045473791_1" function="internal">
        <lane id=":1045473791_1_0" index="0" speed="5.16" length="0.10" shape="880.92,1179.35 880.99,1179.35"/>
    </edge>
    <edge id=":1045473791_2" function="internal">
        <lane id=":1045473791_2_0" index="0" speed="5.16" length="1.76" shape="877.58,1180.60 878.13,1181.14 878.53,1181.53 878.77,1181.74 878.87,1181.80"/>
    </edge>
    <edge id=":1045473791_3" function="internal">
        <lane id=":1045473791_3_0" index="0" speed="1.39" length="5.30" shape="877.58,1180.60 877.97,1179.01 878.66,1178.27 879.67,1178.38 880.99,1179.35"/>
    </edge>
    <edge id=":1045473903_0" function="internal">
        <lane id=":1045473903_0_0" index="0" speed="1.39" length="0.10" shape="1052.35,1138.21 1052.35,1138.21"/>
    </edge>
    <edge id=":1045473903_1" function="internal">
        <lane id=":1045473903_1_0" index="0" speed="1.39" length="2.41" shape="1052.35,1138.21 1053.81,1137.96 1054.68,1138.27"/>
    </edge>
    <edge id=":1045473903_4" function="internal">
        <lane id=":1045473903_4_0" index="0" speed="1.39" length="2.41" shape="1054.68,1138.27 1054.95,1139.16 1054.62,1140.61"/>
    </edge>
    <edge id=":1045473903_2" function="internal">
        <lane id=":1045473903_2_0" index="0" speed="1.39" length="0.10" shape="1054.62,1140.61 1054.62,1140.61"/>
    </edge>
    <edge id=":1045473903_3" function="internal">
        <lane id=":1045473903_3_0" index="0" speed="1.39" length="2.41" shape="1054.62,1140.61 1053.16,1140.86 1052.29,1140.55"/>
    </edge>
    <edge id=":1045473903_5" function="internal">
        <lane id=":1045473903_5_0" index="0" speed="1.39" length="2.41" shape="1052.29,1140.55 1052.02,1139.66 1052.35,1138.21"/>
    </edge>
    <edge id=":1045473907_0" function="internal">
        <lane id=":1045473907_0_0" index="0" speed="8.94" length="4.82" shape="826.42,1147.07 826.67,1148.53 826.35,1149.40 825.47,1149.67 824.02,1149.34"/>
    </edge>
    <edge id=":1045474010_0" function="internal">
        <lane id=":1045474010_0_0" index="0" speed="7.64" length="1.50" shape="1067.05,1120.02 1066.94,1119.64 1066.95,1119.29 1067.09,1118.97 1067.36,1118.67"/>
    </edge>
    <edge id=":1045474010_1" function="internal">
        <lane id=":1045474010_1_0" index="0" speed="1.39" length="5.72" shape="1067.05,1120.02 1065.87,1121.33 1064.83,1121.67 1063.93,1121.05 1063.17,1119.45"/>
    </edge>
    <edge id=":1045474010_2" function="internal">
        <lane id=":1045474010_2_0" index="0" speed="7.64" length="2.16" shape="1063.62,1117.51 1063.23,1117.93 1063.03,1118.39 1063.01,1118.90 1063.17,1119.45"/>
    </edge>
    <edge id=":1045474010_3" function="internal">
        <lane id=":1045474010_3_0" index="0" speed="13.89" length="5.72" shape="1063.62,1117.51 1064.99,1116.40 1066.07,1116.22 1066.86,1116.98 1067.36,1118.67"/>
    </edge>
    <edge id=":1045474014_0" function="internal">
        <lane id=":1045474014_0_0" index="0" speed="8.94" length="4.82" shape="1079.51,1284.82 1080.96,1284.53 1081.84,1284.82 1082.13,1285.69 1081.84,1287.15"/>
    </edge>
    <edge id=":1045474116_0" function="internal">
        <lane id=":1045474116_0_0" index="0" speed="8.94" length="0.10" shape="829.49,1152.63 829.49,1152.64"/>
    </edge>
    <edge id=":1045474116_1" function="internal">
        <lane id=":1045474116_1_0" index="0" speed="8.94" length="2.59" shape="829.49,1152.63 830.08,1152.24 830.66,1152.13 831.23,1152.30 831.78,1152.74"/>
    </edge>
    <edge id=":1045474116_2" function="internal">
        <lane id=":1045474116_2_0" index="0" speed="8.94" length="4.82" shape="829.49,1152.63 830.97,1152.44 831.82,1152.78 832.06,1153.68 831.67,1155.11"/>
    </edge>
    <edge id=":1045474116_3" function="internal">
        <lane id=":1045474116_3_0" index="0" speed="8.94" length="2.59" shape="829.38,1155.01 829.93,1155.45 830.50,1155.61 831.08,1155.50 831.67,1155.11"/>
    </edge>
    <edge id=":1045474116_4" function="internal">
        <lane id=":1045474116_4_0" index="0" speed="8.94" length="2.72" shape="829.38,1155.01 828.95,1154.39 828.82,1153.79 829.00,1153.21 829.49,1152.64"/>
    </edge>
    <edge id=":1045474116_5" function="internal">
        <lane id=":1045474116_5_0" index="0" speed="8.94" length="4.82" shape="829.38,1155.01 829.13,1153.54 829.45,1152.67 830.33,1152.41 831.78,1152.74"/>
    </edge>
    <edge id=":1045474116_6" function="internal">
        <lane id=":1045474116_6_0" index="0" speed="8.94" length="2.72" shape="831.68,1155.11 832.16,1154.53 832.34,1153.95 832.21,1153.35 831.78,1152.74"/>
    </edge>
    <edge id=":1045474116_7" function="internal">
        <lane id=":1045474116_7_0" index="0" speed="8.94" length="0.10" shape="831.68,1155.11 831.67,1155.11"/>
    </edge>
    <edge id=":1045474116_8" function="internal">
        <lane id=":1045474116_8_0" index="0" speed="8.94" length="4.82" shape="831.68,1155.11 830.20,1155.31 829.35,1154.97 829.11,1154.07 829.49,1152.64"/>
    </edge>
    <edge id=":1045474122_0" function="internal">
        <lane id=":1045474122_0_0" index="0" speed="13.89" length="0.10" shape="1050.00,1142.73 1050.00,1142.73"/>
    </edge>
    <edge id=":1045474122_1" function="internal">
        <lane id=":1045474122_1_0" index="0" speed="7.64" length="2.65" shape="1050.00,1142.73 1050.42,1143.32 1050.55,1143.91 1050.38,1144.48 1049.93,1145.05"/>
    </edge>
    <edge id=":1045474122_2" function="internal">
        <lane id=":1045474122_2_0" index="0" speed="13.89" length="2.41" shape="1050.00,1142.73 1050.25,1144.19 1049.93,1145.06"/>
    </edge>
    <edge id=":1045474122_9" function="internal">
        <lane id=":1045474122_9_0" index="0" speed="13.89" length="2.41" shape="1049.93,1145.06 1049.05,1145.32 1047.60,1144.99"/>
    </edge>
    <edge id=":1045474122_3" function="internal">
        <lane id=":1045474122_3_0" index="0" speed="7.64" length="2.65" shape="1047.66,1142.66 1047.21,1143.23 1047.05,1143.81 1047.18,1144.39 1047.60,1144.99"/>
    </edge>
    <edge id=":1045474122_4" function="internal">
        <lane id=":1045474122_4_0" index="0" speed="7.64" length="2.67" shape="1047.66,1142.66 1048.26,1142.24 1048.85,1142.11 1049.43,1142.27 1050.00,1142.73"/>
    </edge>
    <edge id=":1045474122_5" function="internal">
        <lane id=":1045474122_5_0" index="0" speed="1.39" length="4.82" shape="1047.66,1142.66 1049.13,1142.41 1049.99,1142.72 1050.26,1143.60 1049.93,1145.05"/>
    </edge>
    <edge id=":1045474122_6" function="internal">
        <lane id=":1045474122_6_0" index="0" speed="7.64" length="2.67" shape="1047.60,1144.99 1048.17,1145.44 1048.75,1145.61 1049.34,1145.48 1049.93,1145.05"/>
    </edge>
    <edge id=":1045474122_7" function="internal">
        <lane id=":1045474122_7_0" index="0" speed="13.89" length="0.10" shape="1047.60,1144.99 1047.60,1144.99"/>
    </edge>
    <edge id=":1045474122_8" function="internal">
        <lane id=":1045474122_8_0" index="0" speed="13.89" length="2.41" shape="1047.60,1144.99 1047.35,1143.52 1047.67,1142.66"/>
    </edge>
    <edge id=":1045474122_10" function="internal">
        <lane id=":1045474122_10_0" index="0" speed="13.89" length="2.41" shape="1047.67,1142.66 1048.55,1142.39 1050.00,1142.73"/>
    </edge>
    <edge id=":1045474133_0" function="internal">
        <lane id=":1045474133_0_0" index="0" speed="11.41" length="0.18" shape="905.53,1200.52 905.47,1200.48 905.43,1200.44 905.40,1200.42 905.39,1200.41"/>
    </edge>
    <edge id=":1045474133_1" function="internal">
        <lane id=":1045474133_1_0" index="0" speed="13.89" length="4.87" shape="905.53,1200.52 905.86,1201.99 905.58,1202.88 904.71,1203.20 903.23,1202.93"/>
    </edge>
    <edge id=":1045474133_2" function="internal">
        <lane id=":1045474133_2_0" index="0" speed="8.94" length="3.30" shape="903.12,1202.81 905.39,1200.41"/>
    </edge>
    <edge id=":1045474133_3" function="internal">
        <lane id=":1045474133_3_0" index="0" speed="11.41" length="0.17" shape="903.12,1202.81 903.12,1202.83 903.13,1202.85 903.17,1202.89 903.23,1202.93"/>
    </edge>
    <edge id=":1045474262_0" function="internal">
        <lane id=":1045474262_0_0" index="0" speed="8.94" length="0.10" shape="956.33,1298.31 956.33,1298.31"/>
    </edge>
    <edge id=":1045474262_1" function="internal">
        <lane id=":1045474262_1_0" index="0" speed="11.41" length="2.90" shape="956.33,1298.31 956.90,1298.89 957.12,1299.49 956.99,1300.12 956.52,1300.77"/>
    </edge>
    <edge id=":1045474262_2" function="internal">
        <lane id=":1045474262_2_0" index="0" speed="8.94" length="4.82" shape="956.33,1298.31 956.82,1299.72 956.65,1300.62 955.82,1301.03 954.34,1300.94"/>
    </edge>
    <edge id=":1045474262_3" function="internal">
        <lane id=":1045474262_3_0" index="0" speed="11.41" length="2.90" shape="954.15,1298.48 953.67,1299.14 953.55,1299.76 953.77,1300.37 954.34,1300.94"/>
    </edge>
    <edge id=":1045474262_4" function="internal">
        <lane id=":1045474262_4_0" index="0" speed="11.41" length="2.44" shape="954.15,1298.48 954.66,1298.07 955.20,1297.91 955.75,1297.99 956.33,1298.31"/>
    </edge>
    <edge id=":1045474262_5" function="internal">
        <lane id=":1045474262_5_0" index="0" speed="13.89" length="4.82" shape="954.15,1298.48 955.60,1298.16 956.48,1298.44 956.79,1299.31 956.52,1300.77"/>
    </edge>
    <edge id=":1045474262_6" function="internal">
        <lane id=":1045474262_6_0" index="0" speed="11.41" length="2.44" shape="954.34,1300.94 954.91,1301.26 955.47,1301.34 956.00,1301.18 956.52,1300.77"/>
    </edge>
    <edge id=":1045474262_7" function="internal">
        <lane id=":1045474262_7_0" index="0" speed="8.94" length="0.10" shape="954.34,1300.94 954.34,1300.94"/>
    </edge>
    <edge id=":1045474262_8" function="internal">
        <lane id=":1045474262_8_0" index="0" speed="8.94" length="4.82" shape="954.34,1300.94 953.85,1299.54 954.02,1298.63 954.84,1298.22 956.33,1298.31"/>
    </edge>
    <edge id=":1045474289_0" function="internal">
        <lane id=":1045474289_0_0" index="0" speed="13.89" length="0.10" shape="923.17,1215.02 923.16,1215.04"/>
    </edge>
    <edge id=":1045474289_1" function="internal">
        <lane id=":1045474289_1_0" index="0" speed="13.89" length="2.56" shape="923.17,1215.02 923.68,1214.54 924.22,1214.33 924.80,1214.38 925.42,1214.70"/>
    </edge>
    <edge id=":1045474289_2" function="internal">
        <lane id=":1045474289_2_0" index="0" speed="13.89" length="2.41" shape="923.17,1215.02 924.59,1214.57 925.49,1214.76"/>
    </edge>
    <edge id=":1045474289_9" function="internal">
        <lane id=":1045474289_9_0" index="0" speed="13.89" length="2.41" shape="925.49,1214.76 925.88,1215.59 925.75,1217.08"/>
    </edge>
    <edge id=":1045474289_3" function="internal">
        <lane id=":1045474289_3_0" index="0" speed="13.89" length="2.56" shape="923.50,1217.39 924.12,1217.71 924.70,1217.77 925.24,1217.55 925.75,1217.08"/>
    </edge>
    <edge id=":1045474289_4" function="internal">
        <lane id=":1045474289_4_0" index="0" speed="13.89" length="2.74" shape="923.50,1217.39 922.96,1216.87 922.72,1216.30 922.78,1215.69 923.16,1215.04"/>
    </edge>
    <edge id=":1045474289_5" function="internal">
        <lane id=":1045474289_5_0" index="0" speed="13.89" length="4.82" shape="923.50,1217.39 922.97,1216.00 923.12,1215.09 923.93,1214.66 925.42,1214.70"/>
    </edge>
    <edge id=":1045474289_6" function="internal">
        <lane id=":1045474289_6_0" index="0" speed="13.89" length="2.74" shape="925.76,1217.06 926.14,1216.40 926.20,1215.79 925.96,1215.23 925.42,1214.70"/>
    </edge>
    <edge id=":1045474289_7" function="internal">
        <lane id=":1045474289_7_0" index="0" speed="13.89" length="0.10" shape="925.76,1217.06 925.75,1217.08"/>
    </edge>
    <edge id=":1045474289_8" function="internal">
        <lane id=":1045474289_8_0" index="0" speed="13.89" length="2.41" shape="925.76,1217.06 924.35,1217.53 923.45,1217.35"/>
    </edge>
    <edge id=":1045474289_10" function="internal">
        <lane id=":1045474289_10_0" index="0" speed="13.89" length="2.41" shape="923.45,1217.35 923.05,1216.52 923.16,1215.04"/>
    </edge>
    <edge id=":1045474394_0" function="internal">
        <lane id=":1045474394_0_0" index="0" speed="8.94" length="5.25" shape="928.07,1152.61 923.79,1149.56"/>
    </edge>
    <edge id=":1045474394_1" function="internal">
        <lane id=":1045474394_1_0" index="0" speed="8.94" length="4.91" shape="928.07,1152.61 927.36,1151.48 927.16,1150.37 927.46,1149.29 928.27,1148.23"/>
    </edge>
    <edge id=":1045474405_0" function="internal">
        <lane id=":1045474405_0_0" index="0" speed="1.39" length="0.10" shape="863.14,1161.34 863.21,1161.40"/>
    </edge>
    <edge id=":1045474405_1" function="internal">
        <lane id=":1045474405_1_0" index="0" speed="5.16" length="0.10" shape="863.14,1161.34 863.14,1161.34 863.12,1161.35 863.10,1161.37 863.07,1161.40"/>
    </edge>
    <edge id=":1045474405_2" function="internal">
        <lane id=":1045474405_2_0" index="0" speed="1.39" length="4.82" shape="863.14,1161.34 863.43,1162.79 863.13,1163.67 862.26,1163.96 860.80,1163.66"/>
    </edge>
    <edge id=":1045474405_3" function="internal">
        <lane id=":1045474405_3_0" index="0" speed="5.16" length="3.20" shape="860.74,1163.59 860.91,1163.48 861.35,1163.08 862.07,1162.39 863.07,1161.40"/>
    </edge>
    <edge id=":1045474405_4" function="internal">
        <lane id=":1045474405_4_0" index="0" speed="1.39" length="0.10" shape="860.74,1163.59 860.80,1163.66"/>
    </edge>
    <edge id=":1045474405_5" function="internal">
        <lane id=":1045474405_5_0" index="0" speed="1.39" length="4.82" shape="860.74,1163.59 860.53,1162.12 860.88,1161.26 861.77,1161.02 863.21,1161.40"/>
    </edge>
    <edge id=":1045474405_6" function="internal">
        <lane id=":1045474405_6_0" index="0" speed="5.16" length="3.11" shape="860.94,1163.53 861.91,1162.57 862.61,1161.90 863.04,1161.51 863.21,1161.40"/>
    </edge>
    <edge id=":1045474405_7" function="internal">
        <lane id=":1045474405_7_0" index="0" speed="8.94" length="3.00" shape="860.94,1163.53 863.07,1161.40"/>
    </edge>
    <edge id=":1045474405_8" function="internal">
        <lane id=":1045474405_8_0" index="0" speed="5.16" length="0.19" shape="860.94,1163.53 860.88,1163.58 860.84,1163.63 860.81,1163.65 860.80,1163.66"/>
    </edge>
    <edge id=":1045474498_0" function="internal">
        <lane id=":1045474498_0_0" index="0" speed="13.41" length="0.27" shape="858.95,1106.13 858.68,1106.18"/>
    </edge>
    <edge id=":1045474498_1" function="internal">
        <lane id=":1045474498_1_0" index="0" speed="7.40" length="2.32" shape="858.95,1106.13 859.57,1106.16 860.07,1106.36 860.44,1106.75 860.69,1107.32"/>
    </edge>
    <edge id=":1045474498_2" function="internal">
        <lane id=":1045474498_2_0" index="0" speed="13.41" length="2.41" shape="858.95,1106.13 860.26,1106.84 860.74,1107.62"/>
    </edge>
    <edge id=":1045474498_9" function="internal">
        <lane id=":1045474498_9_0" index="0" speed="13.41" length="2.41" shape="860.74,1107.62 860.41,1108.48 859.26,1109.42"/>
    </edge>
    <edge id=":1045474498_3" function="internal">
        <lane id=":1045474498_3_0" index="0" speed="7.40" length="2.32" shape="857.51,1108.22 857.76,1108.79 858.14,1109.18 858.63,1109.39 859.26,1109.42"/>
    </edge>
    <edge id=":1045474498_4" function="internal">
        <lane id=":1045474498_4_0" index="0" speed="7.40" length="2.70" shape="857.51,1108.22 857.41,1107.49 857.58,1106.90 858.00,1106.47 858.68,1106.18"/>
    </edge>
    <edge id=":1045474498_5" function="internal">
        <lane id=":1045474498_5_0" index="0" speed="1.39" length="4.82" shape="857.51,1108.22 857.97,1106.81 858.65,1106.19 859.56,1106.36 860.69,1107.32"/>
    </edge>
    <edge id=":1045474498_6" function="internal">
        <lane id=":1045474498_6_0" index="0" speed="7.40" length="2.70" shape="859.52,1109.37 860.21,1109.08 860.63,1108.64 860.79,1108.06 860.69,1107.32"/>
    </edge>
    <edge id=":1045474498_7" function="internal">
        <lane id=":1045474498_7_0" index="0" speed="13.41" length="0.27" shape="859.52,1109.37 859.26,1109.42"/>
    </edge>
    <edge id=":1045474498_8" function="internal">
        <lane id=":1045474498_8_0" index="0" speed="13.41" length="2.41" shape="859.52,1109.37 858.12,1108.89 857.51,1108.19"/>
    </edge>
    <edge id=":1045474498_10" function="internal">