<?xml version="1.0" encoding="UTF-8"?>

<!-- generated on Tue Apr 22 20:48:59 2014 by SUMO duarouter Version 0.18.0
<?xml version="1.0" encoding="UTF-8"?>

<configuration xmlns:xsi="http://www.w3.org/2001/XMLSchema-instance" xsi:noNamespaceSchemaLocation="http://sumo.sf.net/xsd/duarouterConfiguration.xsd">

    <input>
        <net-file value="aberdeen.net.xml"/>
        <trip-files value="trips.trips.xml"/>
        <route-files value="VehicleTypes.xml"/>
    </input>

    <output>
        <output-file value="carroutes.rou.xml"/>
        <vtype-output value=""/>
    </output>

    <processing>
        <ignore-errors value="true"/>
    </processing>

    <time>
        <begin value="0"/>
        <end value="3600.0"/>
    </time>

</configuration>
-->

<routes xmlns:xsi="http://www.w3.org/2001/XMLSchema-instance" xsi:noNamespaceSchemaLocation="http://sumo.sf.net/xsd/routes_file.xsd">
    <vType id="car" length="5.00" maxSpeed="70.00" vClass="private">
        <carFollowing-Krauss accel="0.80" decel="4.50" sigma="0.50"/>
    </vType>
    <vehicle id="8" type="car" depart="6.40">
        <route edges="-95196475 95196475 95196473#0 95196473#1 26295174 26295175#0 26295175#1 200756687 -200756687 -26336491#9 -26336491#8 -26336491#7 5219548 -5219545#3 -5219545#2 -5219545#1 -5219545#0 50185491 50185492 5680500#0 5680500#1 5217390#5 5217390#6"/>
    </vehicle>
    <vehicle id="9" type="car" depart="7.20">
        <route edges="130911746#1 5219540#4 5219540#5 5219545#0 5219545#1 5219545#2 5219628#0 -5219561#1 -5219561#0 200756684 269436434#0 269436434#1 5218498#0 5218498#1 93282093#0 93282093#1 5216998 93282093#4"/>
    </vehicle>
    <vehicle id="10" type="car" depart="8.00">
        <route edges="-40634996#2 40634996#2 8295068#0 8295068#1 9703984 9703983 -8295063#2 -8295063#1 -8295063#0 130803765#3 165358780#0 165358780#1 9166501#1 40635757 40635758#0 9167550#2 132148283 236367426#0 -236461790#4 -236461790#3 -236461790#2 -236461790#1"/>
    </vehicle>
    <vehicle id="11" type="car" depart="8.80">
        <route edges="-131263959#0 -8602355#1 -8602355#0 8602379#0 -26517384#3 -26517384#2 -26517384#1 -8602375#1 -8602375#0 -5680501#2 -5680505 137829128#0"/>
    </vehicle>
    <vehicle id="12" type="car" depart="9.60">
        <route edges="-263562955#6 -263562955#5 -263562955#4 -263562955#3 -263562955#2 -263562955#1 8602352#0 -8602351 8602311#1 -8602329 -8602312#0 95288244#1 132130879#0 132130879#1 95288241 100611543#0 100611543#1 100611543#2 100611543#3 100611543#4 100611543#5 100611543#6 100611543#7 40635002#1 40635001#0 40635001#1 40635001#2 165358755 93282085 5219295#0 5219295#1"/>
    </vehicle>
    <vehicle id="14" type="car" depart="11.20">
        <route edges="5671682#0 5671682#1 5671682#2 -3515024#1 -3515024#0 8295068#0 8295068#1 9703984 9703983 -8295063#2 -8295063#1 -8295063#0 130803765#3 165358780#0 256321325 -40635001#2 -40635001#1 -40635001#0 -40635002#1 -40635002#0 100611549#3 100611549#2 100611549#1 100611549#0 100611548 129399254#0 129399254#1 129399256#0 129399256#1 129399256#2 -95288244#2 -95288244#1 8602312#0 8602329"/>
    </vehicle>
    <vehicle id="16" type="car" depart="12.80">
        <route edges="-200756684 200756684 269436434#0 269436434#1 5218498#0 5218498#1 93282093#0 93282093#1 5216998 93282093#4 93282093#5 93282093#6 93282093#7 93282093#8 113214452#0 113214452#1 40634995#0 40634995#1 40634995#2 40634995#3"/>
    </vehicle>
    <vehicle id="17" type="car" depart="13.60">
        <route edges="26310724 -26310724 26310718#1 -26310705#1 -26310705#0 -5216629#0 5216613#6 5216613#0 5216613#1 5216613#2 -72879236#5 -72879236#4 -72879236#3 -72879236#2 -72879236#1 -72879236#0 -5218323#1 -5218323#0 -26336491#9 -26336491#8 -26336491#7 5219548 -5219545#3 -5219545#2 -5219545#1 -5219545#0 -5219540#5 -5219540#4 5219540#4"/>
    </vehicle>
    <vehicle id="23" type="car" depart="18.40">
        <route edges="5219548 -5219545#3 5219628#0 -5219561#1 -5219561#0 200756684 269436434#0 269436434#1 5218498#0 5218498#1 93282093#0 93282093#1 5216998 93282093#4 93282093#5 93282093#6 93282093#7 93282093#8 113214452#0 113214452#1 40634995#0 40634995#1 40634995#2 -40634995#2"/>
    </vehicle>
    <vehicle id="24" type="car" depart="19.20">
        <route edges="-72879236#3 -72879236#2 -72879236#1 -72879236#0 -5218323#1 93282084 133197918 200756684 -269436436 -5218450#3 -4259736 -4259730#2 -4259730#1 -4259737 -4259732#0 5217390#9 8602214 263562955#0 263562955#1 263562955#2 263562955#3 263562955#4 263562955#5 8602355#0 8602356#0 8602358 -8602358"/>
    </vehicle>
    <vehicle id="26" type="car" depart="20.80">
        <route edges="100611548 129399254#0 129399254#1 129399256#0 129399256#1 5217378#0 5217378#1 95288241 100611543#0 100611543#1 100611543#2 100611543#3 100611543#4 100611543#5 100611543#6 100611543#7 40635002#1 40635001#0 40635001#1 40635001#2 165358755 93282085 93282091 40634998#0 40634998#1 -40634996#0 -40634995#4 -40634995#3 -40634995#2 -40634995#1 -40634995#0 -40634994#2 -40634994#1 -40634994#0 -5218451 5218369#0"/>
    </vehicle>
    <vehicle id="28" type="car" depart="22.40">
        <route edges="-5680501#1 -5680501#0 -5217390#5 -5680500#1 50185490 21931466 -5219542#0 -5219540#4 -5219540#3 -5219540#2 -5219540#1"/>
    </vehicle>
    <vehicle id="29" type="car" depart="23.20">
        <route edges="-5219280#3 -5219280#2 -5219280#1 -5219280#0 -5217465#1 -5217465#0"/>
    </vehicle>
    <vehicle id="31" type="car" depart="24.80">
        <route edges="-95253163#2 -95253163#1 8114780#0 8114780#1 5218357#0 95196474#1 95196474#2 72879193 95196475 95196473#0 95196473#1 26295174 26295175#0 26295175#1 200756687 133197918"/>
    </vehicle>
    <vehicle id="36" type="car" depart="28.80">
        <route edges="40634996#1 -40634996#1 -40634996#0 -40634997 -95288246#8 -95288246#7 95288246#7"/>
    </vehicle>
    <vehicle id="37" type="car" depart="29.60">
        <route edges="5219542#0 -5219542#0 5219540#5 5219545#0 5219545#1 5219545#2 5219545#3 5219547 26336491#6 26336491#7 26336491#8 26336491#9 5218323#0 5218323#1 72879236#0 72879236#1 72879236#2 72879236#3 72879236#4 72879236#5 5216613#3 5218342#0 5218342#1 5218342#2"/>
    </vehicle>
    <vehicle id="41" type="car" depart="32.80">
        <route edges="26295175#1 200756687 133197918 200756684 -269436436 -5218450#3 -5218450#2 -5218450#1 -5218450#0 5217363 95288248 95288244#0 95288244#1 132130879#0 132130879#1 95288241 100611543#0 100611543#1 100611543#2 100611543#3 100611543#4 100611543#5 100611543#6 100611543#7 40635002#1 40635001#0 40635001#1"/>
    </vehicle>
    <vehicle id="42" type="car" depart="33.60">
        <route edges="9167550#0 9167550#1 9167550#2 40635759#0 40635759#1 40635759#2 40635754 -40635002#1 -40635002#0 100611549#3 100611549#2 100611549#1 100611549#0 100611548 129399254#0 129399254#1 129399256#0 129399256#1 129399256#2 -95288244#2 -95288244#1 8602312#0 8602329 -8602311#1 -8602311#0 -8602214 -5217390#9 4259732#0 4259732#1 4259738#1 -5219628#1 -5219628#0 5219545#3 5219547 26336491#6 26336491#7 26336491#8 93282092 -26295175#0 -26295174 -95196473#1 -95196473#0 -95196475 -72879193 8114770#0 8114770#1 8114770#2 8114770#3 -8114770#3"/>
    </vehicle>
    <vehicle id="43" type="car" depart="34.40">
        <route edges="5217378#0 5217378#1 95288241 100611543#0 100611543#1 100611543#2 100611543#3 100611543#4 100611543#5 100611543#6 130775000 100611549#2 100611549#1 100611549#0 100611548 129399254#0 129399254#1 129399256#0 129399256#1 129399256#2 -95288244#2 -95288244#1 8602312#0 8602329 -8602311#1 -8602311#0 -8602214 -5217390#9 -5217390#8 -5217390#7 -5217390#6 -5217390#5 -5217390#4 -5217390#3 -5217390#2 -5217390#1 -5217390#0 -135297884#2 -135297884#1"/>
    </vehicle>
    <vehicle id="50" type="car" depart="40.00">
        <route edges="269436435 -269436435 5218258 -130995272 -5216629#1 -5216629#0 5216613#6 5216613#0 5217352#0 5217352#1 5217352#2 5217352#3 5217471 5217473 100611543#2 100611543#3 100611543#4 100611543#5 100611543#6 130775000 100611549#2 100611549#1 100611549#0 100611548 129399254#0 129399254#1"/>
    </vehicle>
    <vehicle id="53" type="car" depart="42.40">
        <route edges="130910802 -130910802 26336491#4 26336491#5 26336491#6 26336491#7 26336491#8 26336491#9 200756687 133197918 200756684 269436434#0 269436434#1 5218498#0 5218498#1 93282093#0 93282093#1 5216998 93282093#4 93282093#5 93282093#6 93282093#7 93282093#8 113214452#0 113214452#1 40634995#0 40634995#1 40634995#2 40634995#3 40634995#4 40634996#0 40634996#1 40634996#2 8295068#0 8295068#1 9703984 9703983 -8295063#2 -8295063#1 -8295063#0"/>
    </vehicle>
    <vehicle id="54" type="car" depart="43.20">
        <route edges="113219316 40634994#1 40634994#2 -113214452#1 -113214452#0 -93282093#8 -93282093#7 -93282093#6 -93282093#5 -93282093#4 -93282093#3 -93282093#2 -93282093#1 -93282093#0 -5218498#1 -5218498#0 5219681 -5218450#3 -4259736"/>
    </vehicle>
    <vehicle id="55" type="car" depart="44.00">
        <route edges="137150843#0 137150843#1 137150828 -3515023 -3515024#1 -3515024#0 -40634996#2 -40634996#1 -40634996#0 -40634995#4 -40634995#3 -40634995#2 -40634995#1 -40634995#0 -113214452#1 -113214452#0 -93282093#8 -93282093#7 -93282093#6 -93282093#5 -93282093#4 -93282093#3 -93282093#2 -93282093#1 -93282093#0 -5218498#1 -5218498#0 -269436434#1 -269436434#0 -200756684 -133197918 -200756687 -26295175#1 -26295175#0 -26295174 -95196473#1 5218358#0"/>
    </vehicle>
    <vehicle id="56" type="car" depart="44.80">
        <route edges="-263489146#1 -263489146#0 -3515023 -3515024#1 -3515024#0 -40634996#2 -40634996#1 -40634996#0 -40634995#4 -40634995#3 -40634995#2 -40634995#1 -40634995#0 -113214452#1 -113214452#0 -93282093#8 -93282093#7 -93282093#6 -93282093#5 -93282093#4 -93282093#3 -93282093#2 -93282093#1 -93282093#0 -5218498#1 -5218498#0 -269436434#1 -269436434#0 -200756684 -133197918 -200756687 -26336491#9 -26336491#8 -26336491#7 -26336491#6 -26336491#5 -26336491#4 130910802 -130910802"/>
    </vehicle>
    <vehicle id="57" type="car" depart="45.60">
        <route edges="-25809743#0 8602370 -5680501#0 5217390#6 5219589 5219545#0 5219545#1 5219545#2 5219545#3 5219547 -26336491#5 -26336491#4"/>
    </vehicle>
    <vehicle id="58" type="car" depart="46.40">
        <route edges="-263489146#1 -263489146#0 -3515023 -3515024#1 -3515024#0 -40634996#2 -40634996#1 -40634996#0 -40634997 -95288246#8 -95288246#7 -95288246#6 -95288246#5 -95288246#4 -95288246#3 -5217005#3 -5219264 93282089#0 -93282089#0"/>
    </vehicle>
    <vehicle id="64" type="car" depart="51.20">
        <route edges="-8602311#1 -8602311#0 -8602214 -5217390#9 -5217390#8 -5217390#7 5219589 -5219540#5 -5219540#4 -5219540#3 -5219540#2 -5219540#1 -5219540#0 50185493#3 -5219404#1 -8602139"/>
    </vehicle>
    <vehicle id="66" type="car" depart="52.80">
        <route edges="-8602355#2 131263959#0 -8602348#2 109176582#1 -263562955#2 -263562955#1 -263562955#0 -8602214 -5217390#9 4259732#0 4259732#1 4259738#1 -5219628#1 -5219628#0 5219545#3 5219547 26336491#6 26336491#7 26336491#8 93282092 -26295175#0 -26295174 -95196473#1 -95196473#0 -95196475"/>
    </vehicle>
    <vehicle id="67" type="car" depart="53.60">
        <route edges="8602422#0 8602422#1 8602424 50185493#2 5219540#0 5219540#1 5219540#2 5219540#3 5219540#4 5219540#5 5219545#0 5219545#1 5219545#2 5219545#3 5219547 26336491#6 26336491#7 26336491#8 26336491#9 5218323#0 5218323#1 72879236#0 72879236#1 72879236#2 135297378#0 135297379 -135297379"/>
    </vehicle>
    <vehicle id="69" type="car" depart="55.20">
        <route edges="-95288246#2 95288246#2 -5217005#3 -5217005#2 -5217005#1 -5217005#0 5216575 130804567 5218258 -130995272 -5216629#1 -5216629#0 5216613#6 5216613#0 5217352#0 5217352#1 5217352#2"/>
    </vehicle>
    <vehicle id="73" type="car" depart="58.40">
        <route edges="-137829128#1 -137829128#0 5680505 -5680501#1 156953870#0 156953870#1 156953871 -8602214 263562956#0 263562956#1 184656307 95288245 95288246#0 95288246#1 95288246#2 -5217005#3 -5217005#2 5217005#2"/>
    </vehicle>
    <vehicle id="77" type="car" depart="61.60">
        <route edges="72879236#3 -72879236#3 -72879236#2 -72879236#1 -72879236#0 -5218323#1 93282084 133197918 200756684 -269436436 -5218450#3 -5218450#2 -5218450#1 -5218450#0 -263562956#1"/>
    </vehicle>
    <vehicle id="81" type="car" depart="64.80">
        <route edges="5680501#0 5680501#1 5680501#2 8602375#0 8602375#1 26517384#1 26517384#2 26517384#3 -8602379#0 8602355#0 8602356#0 8602358 -8602358"/>
    </vehicle>
    <vehicle id="82" type="car" depart="65.60">
        <route edges="5218323#1 -5218323#1 93282084 133197918 200756684 269436434#0 269436434#1 5218498#0 5218498#1 93282093#0 93282093#1 5216998 93282093#4 93282093#5 93282093#6 93282093#7 93282093#8 113214452#0 113214452#1 -40634994#2 -40634994#1"/>
    </vehicle>
    <vehicle id="83" type="car" depart="66.40">
        <route edges="93282093#3 -93282093#3 -93282093#2 -93282093#1 -93282093#0 -5218498#1 -5218498#0 -269436434#1 -269436434#0 -200756684 -133197918 -200756687 -26336491#9 -26336491#8 -26336491#7 -26336491#6 -26336491#5 -26336491#4 -26336491#3 -26336491#2 -26336491#1 26336491#1"/>
    </vehicle>
    <vehicle id="84" type="car" depart="67.20">
        <route edges="93282093#1 -93282093#1 -93282093#0 -5218498#1 -5218498#0 -269436434#1 -269436434#0 -200756684 -133197918 -200756687 -26336491#9 -26336491#8 -26336491#7 -26336491#6 -26336491#5 -26336491#4 -26336491#3 -26336491#2 -26336491#1"/>
    </vehicle>
    <vehicle id="85" type="car" depart="68.00">
        <route edges="40635002#0 -40635002#0 100611549#3 100611549#2 100611549#1 100611549#0 100611548 129399254#0 129399254#1 129399256#0 129399256#1 129399256#2 -95288244#2 -95288244#1 8602312#0 8602329 -8602311#1 -8602311#0 -8602214 -5217390#9 4259732#0 4259732#1 4259738#1 -5219628#1 -5219628#0 5219545#3 5219547 26336491#6 26336491#7 26336491#8 93282092 -26295175#0 -26295174 -95196473#1 -95196473#0 -95196475 -72879193 -95196474#2 90177264 -90177264"/>
    </vehicle>
    <vehicle id="87" type="car" depart="69.60">
        <route edges="-124558254 -8602394#0 -5680501#3 -5680501#2 -5680501#1 -5680501#0 5217390#6 5219589 5219545#0 5219545#1 5219545#2 5219545#3 5219547 26336491#6 26336491#7 26336491#8 93282092 -26295175#0 -26295174 -95196473#1 -95196473#0 -95196475 -72879193"/>
    </vehicle>
    <vehicle id="89" type="car" depart="71.20">
        <route edges="5219260#0 -5219260#0 -93282093#8 -93282093#7 -93282093#6 -93282093#5 5217005#0 5217005#1 5217005#2 -5219264 5217002 -95288246#0 -95288245 -184656307 5217363 95288248 95288244#0 95288244#1 95288244#2"/>
    </vehicle>
    <vehicle id="92" type="car" depart="73.60">
        <route edges="5217466#0 22181132 129399256#0 129399256#1 5217378#0 5217378#1 95288241 100611543#0 100611543#1 100611543#2 100611543#3 100611543#4 100611543#5 100611543#6 100611543#7 40635002#1 40635001#0 40635001#1 40635001#2 165358755 136990915"/>
    </vehicle>
    <vehicle id="98" type="car" depart="78.40">
        <route edges="40634998#1 -40634996#0 -40634997 -95288246#8 -95288246#7 -95288246#6 -95288246#5 -95288246#4 -95288246#3 -5217005#3 -5217005#2 -5217005#1"/>
    </vehicle>
    <vehicle id="99" type="car" depart="79.20">
        <route edges="-109178542 -132130894 -8602329 -8602312#0 95288244#1 132130879#0 132130879#1 95288241 100611543#0 100611543#1 100611543#2 100611543#3 100611543#4 100611543#5 100611543#6 100611543#7 40635002#1 40635001#0 40635001#1 40635001#2 9166501#0 9166501#1 40635757 40635758#0"/>
    </vehicle>
    <vehicle id="103" type="car" depart="82.40">
        <route edges="-5219260#2 -5219260#1 -5219260#0 -93282093#8 -93282093#7 -93282093#6 -93282093#5 -93282093#4 -93282093#3 -93282093#2 -93282093#1 -93282093#0 -5218498#1 -5218498#0 5219681 -5218450#3 -4259736 4259730#3 -4259735#1 -4259735#0"/>
    </vehicle>
    <vehicle id="104" type="car" depart="83.20">
        <route edges="-21931466 21931466 -5219542#0 5219540#5 5219545#0 5219545#1 5219545#2 5219545#3 5219547 26336491#6 26336491#7 26336491#8 26336491#9 5218323#0 5218323#1 72879236#0 72879236#1 72879236#2 135297378#0 135297378#1"/>
    </vehicle>
    <vehicle id="106" type="car" depart="84.80">
        <route edges="8602349#0 8602348#1 109176582#1 -263562955#2 -263562955#1 8602352#0 -8602351 8602311#1 -8602329 -8602312#0 95288244#1 95288244#2 -95288244#2"/>
    </vehicle>
    <vehicle id="108" type="car" depart="86.40">
        <route edges="40635756 -40635001#2 -40635001#1 -40635001#0 -40635002#1 -40635002#0 100611549#3 100611549#2 100611549#1 100611549#0 100611548 129399254#0 129399254#1 129399256#0 129399256#1 129399256#2 -95288244#2 -95288244#1 8602312#0 8602329 -8602311#1 8602351 8602352#1 8602348#0 8602348#1 8602348#2 -131263959#0 8602355#2 -8602355#2"/>
    </vehicle>
    <vehicle id="112" type="car" depart="89.60">
        <route edges="-5217005#0 93282093#5 93282093#6 93282093#7 93282093#8 113214452#0 113214452#1 40634995#0 40634995#1 40634995#2 40634995#3 40634995#4 40634996#0 40634996#1 40634996#2 8295068#0 -8295068#0"/>
    </vehicle>
    <vehicle id="113" type="car" depart="90.40">
        <route edges="263562956#0 -263562956#0 8602214 263562955#0 263562955#1 263562955#2 263562955#3 263562955#4 263562955#5 8602355#0 -8602355#0"/>
    </vehicle>
    <vehicle id="114" type="car" depart="91.20">
        <route edges="-93282093#0 -5218498#1 -5218498#0 -269436434#1"/>
    </vehicle>
    <vehicle id="115" type="car" depart="92.00">
        <route edges="40634998#0 40634998#1 40634996#1 40634996#2 8295068#0 8295068#1 9703984 9703983 -8295063#2 -8295063#1 -8295063#0 130803765#3 165358780#0 256321325 -40635001#2 -40635001#1 -40635001#0 -40635002#1 -40635002#0 100611549#3 100611549#2 100611549#1 100611549#0 100611548 129399254#0 129399254#1 129399256#0 129399256#1 129399256#2 -95288244#2 -95288244#1 8602312#0 8602329 -8602311#1 8602351 -8602351"/>
    </vehicle>
    <vehicle id="117" type="car" depart="93.60">
        <route edges="-132130884 26294935#2 130773975 100611543#4 100611543#5 100611543#6 100611543#7 40635002#1 40635001#0 40635001#1 40635001#2 165358755 93282085 93282091 40634998#0 40634998#1 40634996#1 40634996#2 8295068#0 8295068#1 9703984 9703983 -8295063#2"/>
    </vehicle>
    <vehicle id="118" type="car" depart="94.40">
        <route edges="236462766#0 236461646#4 236368867 236367231 9165806#3 40635762 40635759#0 40635759#1 40635759#2 40635754 -40635002#1 -40635002#0 100611549#3 100611549#2 100611549#1 100611549#0 100611548 129399254#0 129399254#1 129399256#0 129399256#1 129399256#2 -95288244#2"/>
    </vehicle>
    <vehicle id="119" type="car" depart="95.20">
        <route edges="26310705#0 -26310705#0 -5216629#0 5216613#6 5216613#0 5217352#0 5217352#1 5217352#2 5217352#3 5217471 5217473 100611543#2 100611543#3 100611543#4 100611543#5 5219288#0 5219288#1"/>
    </vehicle>
    <vehicle id="121" type="car" depart="96.80">
        <route edges="236462883#2 236463212 236462623 236367280 132148284 40635759#1 40635759#2 40635756 -40634999 -5217465#2 -5217465#1 -5217465#0 -95288246#5 -95288246#4 -95288246#3 -5217005#3 -5217005#2 5217010 93282096 -93282093#2 -93282093#1 -93282093#0 -5218498#1 -5218498#0 -269436434#1 -269436434#0"/>
    </vehicle>
    <vehicle id="122" type="car" depart="97.60">
        <route edges="9165806#0 9165806#1 236367034 236367426#3 236461646#9"/>
    </vehicle>
    <vehicle id="123" type="car" depart="98.40">
        <route edges="113213760#2 -95288246#6 5217465#0 5217465#1 5219280#0 131268561 -5219294#0 5219282#2 -40635001#1 -40635001#0 -40635002#1 -40635002#0 100611549#3 100611549#2 100611549#1 100611549#0 100611548 129399254#0 129399254#1 129399256#0 129399256#1 129399256#2 -95288244#2 -95288244#1 8602312#0 8602329 132130894"/>
    </vehicle>
    <vehicle id="125" type="car" depart="100.00">
        <route edges="236461790#2 236367280 132148284 40635759#1 40635759#2 40635754 -40635002#1 -40635002#0 100611549#3 100611549#2 100611549#1 100611549#0 100611548 129399254#0 129399254#1 129399256#0 129399256#1 129399256#2 -95288244#2 -95288244#1 8602312#0 8602329 -8602311#1 -8602311#0 -8602214 -5217390#9 -5217390#8 -5217390#7 5219589 -5219540#5 -5219540#4 -5219540#3 26336483 -26336483"/>
    </vehicle>
    <vehicle id="126" type="car" depart="100.80">
        <route edges="95288241 100611543#0 100611543#1 100611543#2 100611543#3 100611543#4 100611543#5 100611543#6 130775000 100611549#2 100611549#1 100611549#0 100611548 129399254#0 129399254#1 129399256#0 129399256#1 129399256#2 -95288244#2 -95288244#1 8602312#0 8602329 -8602311#1 -8602311#0 -8602214 -5217390#9 4259732#0 4259732#1 4259738#1"/>
    </vehicle>
    <vehicle id="127" type="car" depart="101.60">
        <route edges="236367280 132148284 40635759#1 40635759#2 40635756 165358755 93282085 93282091 40634998#0 40634998#1 -40634996#0 -40634995#4 -40634995#3 -40634995#2 5219256 -5219256"/>
    </vehicle>
    <vehicle id="129" type="car" depart="103.20">
        <route edges="-93282093#4 93282093#4 5217005#0 5217005#1 5217005#2 5217005#3 95288246#3 95288246#4 95288246#5 5217465#0 5217465#1 5219280#0 5219280#1 5219280#2 -5219280#2"/>
    </vehicle>
    <vehicle id="131" type="car" depart="104.80">
        <route edges="-8602420 22181124#1 5219543 21931467 5217390#2 8602387 8602370 156953870#0 156953870#1 156953871 8602311#0 8602311#1 -8602329 -8602312#0 95288244#1 132130879#0 132130879#1 95288241 100611543#0 100611543#1 100611543#2 100611543#3 100611543#4 100611543#5 100611543#6 130775000 100611549#2 100611549#1 100611549#0 100611548 129399258#0 -129399259 129399259"/>
    </vehicle>
    <vehicle id="132" type="car" depart="105.60">
        <route edges="5218342#2 -5218343#2 -5218343#1 -5218343#0 72879193 95196475 95196473#0 95196473#1 26295174 26295175#0 26295175#1 200756687 -200756687 -26336491#9 -26336491#8 -26336491#7 5219548 -5219545#3 -5219545#2 -5219545#1 -5219545#0 50185491 50185492 5680500#0 5680500#1 5217390#5 5680501#0 5680501#1 5680501#2 5680501#3 5680501#4 -180313365#2 -180313365#1"/>
    </vehicle>
    <vehicle id="137" type="car" depart="109.60">
        <route edges="8114783#2 -8114783#2 -8114783#1 -8114783#0 8114780#1 5218357#0 95196474#1 95196474#2 72879193 95196475 95196473#0 95196473#1 26295174 26295175#0 26295175#1 200756687 133197918 200756684 -269436436 -5218450#3 -4259736 -4259730#2 -4259730#1 -4259737 -4259732#0 5217390#9 8602214 8602311#0 8602311#1 132130894 109178542 -109178542"/>
    </vehicle>
    <vehicle id="143" type="car" depart="114.40">
        <route edges="-22181124#0 22181124#0 22181124#1 5219543 21931467 5217390#2 8602387 8602370 156953870#0 156953870#1 156953871 -8602214 263562956#0 263562956#1 184656307 95288245 95288246#0 95288246#1 95288246#2 -5217005#3 -5217005#2 5217010"/>
    </vehicle>
    <vehicle id="144" type="car" depart="115.20">
        <route edges="-26336491#9 -26336491#8 -26336491#7 5219548 -5219545#3 -5219545#2 -5219545#1 -5219545#0 50185491 50185492 5680500#0 5680500#1 5217390#5 5680501#0 5680501#1 5680501#2 5680501#3 5680501#4 -180313365#2 180313365#2"/>
    </vehicle>
    <vehicle id="147" type="car" depart="117.60">
        <route edges="8602410 -8602410 -25809743#1 -25809743#0 8602370 156953870#0 156953870#1 156953871 -8602214 263562956#0 263562956#1 184656307 95288245 95288246#0 95288246#1 95288246#2 -5217005#3 -5217005#2 -5217005#1 -5217005#0 93282093#5 93282093#6 93282093#7 93282093#8 113214452#0 113214452#1 40634995#0"/>
    </vehicle>
    <vehicle id="148" type="car" depart="118.40">
        <route edges="-5219280#0 -5217465#1 -5217465#0 -95288246#5 -95288246#4 -95288246#3 -5217005#3 -5217005#2 5217010 93282096 -93282093#2 -93282093#1 -93282093#0 -5218498#1 -5218498#0 -269436434#1 -269436434#0 -200756684 -133197918 -200756687 -26336491#9 -26336491#8 -26336491#7 -26336491#6 -26336491#5 -26336491#4 130910802 -130910802"/>
    </vehicle>
    <vehicle id="149" type="car" depart="119.20">
        <route edges="180315117 -95253163#1 8114780#0 8114780#1 5218357#0 95196474#1 95196474#2 72879193 95196475 95196473#0 95196473#1 26295174 26295175#0 26295175#1 200756687 133197918 200756684 -269436436 -5218450#3 -4259736 -4259730#2 -5219624 4259738#0 4259738#1"/>
    </vehicle>
    <vehicle id="153" type="car" depart="122.40">
        <route edges="95288244#0 95288244#1 132130879#0 132130879#1 95288241 100611543#0 5217472 5217470 5217362#0 5217362#1 5216613#2 -72879236#5 -72879236#4 -72879236#3 -72879236#2 131003573"/>
    </vehicle>
    <vehicle id="156" type="car" depart="124.80">
        <route edges="-40634996#2 40634996#2 8295068#0 8295068#1 9703984 9703983 -8295063#2 -8295063#1 -8295063#0 130803765#3 165358780#0 256321325 -40635001#2 -40635001#1 -40635001#0 -40635002#1 -40635002#0 100611549#3 100611549#2 100611549#1 100611549#0 100611548 129399258#0 129399258#1 95288247#0 95288247#1"/>
    </vehicle>
    <vehicle id="158" type="car" depart="126.40">
        <route edges="40635763 40635762 40635759#0 40635759#1 40635759#2 40635754 -40635002#1 -40635002#0 100611549#3 100611549#2 100611549#1 100611549#0 100611548 129399254#0 129399254#1 129399256#0 129399256#1 5217378#0 5217378#1"/>
    </vehicle>
    <vehicle id="162" type="car" depart="129.60">
        <route edges="-25809743#1 -25809743#0 8602370 5680501#1 5680501#2 8602375#0 8602375#1 26517384#1 26517384#2 26517384#3 -8602379#0 8602355#0 8602356#0 8602358 -8602358"/>
    </vehicle>
    <vehicle id="165" type="car" depart="132.00">
        <route edges="5219540#1 5219540#2 5219540#3 5219540#4 5219540#5 50185491 50185492 5680500#0 5680500#1 5217390#5 5680501#0 5680501#1 5680501#2 8602375#0 8602375#1 26517384#1 8602377 8602349#0 8602348#1 -8602348#1"/>
    </vehicle>
    <vehicle id="170" type="car" depart="136.00">
        <route edges="-251517368 113213760#2 -95288246#6 -95288246#5 -95288246#4 -95288246#3 -5217005#3 -5217005#2 5217010 93282096 -93282093#2 -93282093#1 -93282093#0 -5218498#1 -5218498#0 -269436434#1 -269436434#0 -200756684 -133197918 -200756687 -26336491#9 -26336491#8 -26336491#7 -26336491#6 -26336491#5 -26336491#4 -26336491#3 -26336491#2 -5219404#1 -8602139 -90177337#0 -26295173#2 8602138 -8602138"/>
    </vehicle>
    <vehicle id="172" type="car" depart="137.60">
        <route edges="93282093#6 -93282093#6 -93282093#5 5217005#0 5217005#1 5217005#2 -5219264 5217002 -95288246#0 -95288245 -184656307 -263562956#1 -263562956#0 8602214 263562955#0 263562955#1"/>
    </vehicle>
    <vehicle id="174" type="car" depart="139.20">
        <route edges="-40634997 40634997 -40634995#4 -40634995#3 -40634995#2 -40634995#1 -40634995#0 -40634994#2 -40634994#1 -40634994#0 -5218451 5218369#0 137150833"/>
    </vehicle>
    <vehicle id="175" type="car" depart="140.00">
        <route edges="-8602214 8602214 263562955#0 8602352#0 8602352#1"/>
    </vehicle>
    <vehicle id="178" type="car" depart="142.40">
        <route edges="50185493#0 50185493#1 50185493#2 5219540#0 5219540#1 5219540#2 5219540#3 -130911746#1"/>
    </vehicle>
    <vehicle id="183" type="car" depart="146.40">
        <route edges="-5219294#1 -5219294#0 5219282#2 -40635001#1 -40635001#0 -40635002#1 -40635002#0 100611549#3 100611549#2 100611549#1 100611549#0 100611548 129399254#0 129399254#1 129399256#0 129399256#1 129399256#2 -95288244#2 -95288244#1 -95288244#0 -95288248 -5217363 -263562956#1 263562956#1"/>
    </vehicle>
    <vehicle id="186" type="car" depart="148.80">
        <route edges="8602352#0 -8602351 -8602311#0 -156953871 26517384#0 -8602375#1 -8602375#0 5680501#3 5680501#4 -180313365#2"/>
    </vehicle>
    <vehicle id="187" type="car" depart="149.60">
        <route edges="-26294932 -5219280#5 -5219280#4 -5219280#3 -5219280#2 -5219280#1 -5219280#0 -5217465#1 -5217465#0 -95288246#5 -95288246#4 -95288246#3 -5217005#3 -5217005#2 5217010 93282096 -93282093#2 -93282093#1 -93282093#0 -5218498#1 -5218498#0 -269436434#1 -269436434#0 -200756684 -133197918 -200756687 -26295175#1 -26295175#0 26295175#0"/>
    </vehicle>
    <vehicle id="188" type="car" depart="150.40">
        <route edges="-3515024#0 -40634996#2 -40634996#1 -40634996#0 -40634995#4 -40634995#3 -40634995#2 -40634995#1 -40634995#0 -113214452#1 -113214452#0 -93282093#8 -93282093#7 -93282093#6 -93282093#5 -93282093#4 -93282093#3 -93282093#2 -93282093#1 -93282093#0 -5218498#1 -5218498#0 -269436434#1 -269436434#0 -200756684 -133197918 -200756687 -26295175#1 -26295175#0 -26295174 -95196473#1 -95196473#0 -95196475 -72879193 -95196474#2 -95196474#1 -5218357#0 8114780#2 8114780#3 8114788 -8114788"/>
    </vehicle>
    <vehicle id="193" type="car" depart="154.40">
        <route edges="8602379#1 -8602379#1 -26517384#3 -26517384#2 -26517384#1 -26517384#0 156953871 -8602214 -5217390#9 4259732#0 4259732#1 4259738#1 -5219628#1 -5219628#0 5219545#3 5219547 26336491#6 26336491#7 26336491#8 26336491#9 5218323#0 5218323#1 72879236#0 72879236#1 72879236#2"/>
    </vehicle>
    <vehicle id="194" type="car" depart="155.20">
        <route edges="130775002 130773975 100611543#4 100611543#5 100611543#6 130775000 100611549#2 100611549#1 100611549#0 100611548 129399254#0 129399254#1 129399256#0 129399256#1 129399256#2 -95288244#2 -95288244#1 8602312#0 8602329 -8602311#1 -8602311#0 -8602214 -5217390#9 -5217390#8 -5217390#7 5219589"/>
    </vehicle>
    <vehicle id="195" type="car" depart="156.00">
        <route edges="-180313365#0 -8602392 8602370 156953870#0 156953870#1 156953871 -8602214 -5217390#9 4259732#0 4259732#1 4259738#1 4259738#2 4259733#0"/>
    </vehicle>
    <vehicle id="196" type="car" depart="156.80">
        <route edges="4259735#1 -4259730#3 -4259730#2 -4259730#1 -4259730#0 263562956#1 184656307 95288245 95288246#0 95288246#1 95288246#2 95288246#3 95288246#4 95288246#5 95288246#6 95288246#7 95288246#8 40634997 -40634995#4"/>
    </vehicle>
    <vehicle id="200" type="car" depart="160.00">
        <route edges="-236461646#5 236368867 236367231 9165806#3 40635762 40635759#0 9167535#0 9167535#1"/>
    </vehicle>
    <vehicle id="206" type="car" depart="164.80">