<?xml version="1.0" encoding="UTF-8"?>

<!-- generated on Tue Apr 22 15:33:46 2014 by SUMO duarouter Version 0.18.0
<?xml version="1.0" encoding="UTF-8"?>

<configuration xmlns:xsi="http://www.w3.org/2001/XMLSchema-instance" xsi:noNamespaceSchemaLocation="http://sumo.sf.net/xsd/duarouterConfiguration.xsd">

    <input>
        <net-file value="aberdeen.net.xml"/>
        <trip-files value="trips.trips.xml"/>
        <route-files value="VehicleTypes.xml"/>
    </input>

    <output>
        <output-file value="routes.rou.xml"/>
        <vtype-output value=""/>
    </output>

    <processing>
        <ignore-errors value="true"/>
    </processing>

    <time>
        <begin value="0"/>
        <end value="3600.0"/>
    </time>

</configuration>
-->

<routes xmlns:xsi="http://www.w3.org/2001/XMLSchema-instance" xsi:noNamespaceSchemaLocation="http://sumo.sf.net/xsd/routes_file.xsd">
    <vType id="car" length="5.00" maxSpeed="70.00" vClass="private">
        <carFollowing-Krauss accel="0.80" decel="4.50" sigma="0.50"/>
    </vType>
    <vehicle id="3" type="car" depart="2.40">
        <route edges="95288246#4 -95288246#4 -95288246#3 -95288246#2 -95288246#1 -95288246#0 -95288245 -184656307 -263562956#1 -263562956#0 -5217390#9 5217390#9"/>
    </vehicle>
    <vehicle id="5" type="car" depart="4.00">
        <route edges="5217363 95288248 95288244#0 95288244#1 132130879#0 132130879#1 95288241 100611543#0 100611543#1 100611543#2 130775002 -26294935#2 -26294935#1 -26294935#0 26294936"/>
    </vehicle>
    <vehicle id="6" type="car" depart="4.80">
        <route edges="236462824 236462883#0 236462914 -236461646#5 236368867 236367231 9165806#3 40635762 40635759#0 40635759#1 40635759#2 40635754 -40635002#1 -40635002#0 100611549#3 100611549#2 100611549#1 100611549#0 100611548 129399254#0 129399254#1 129399256#0 129399256#1 5217378#0 5217378#1 95288241 100611543#0 5217472 5217470 5217362#0 5217362#1 5216613#2 -72879236#5 -72879236#4 -72879236#3 135297378#0 135297378#1 135297377"/>
    </vehicle>
    <vehicle id="7" type="car" depart="5.60">
        <route edges="4259737 -4259730#0 263562956#1 184656307 95288245 95288246#0 95288246#1 95288246#2 95288246#3 95288246#4 95288246#5 95288246#6 95288246#7 95288246#8 40634997 40634996#0 40634996#1 40634996#2 8295068#0"/>
    </vehicle>
    <vehicle id="11" type="car" depart="8.80">
        <route edges="8602352#3 8602352#4 109176582#0 109176582#1 -263562955#2 -263562955#1 -263562955#0 -8602214 -5217390#9 4259732#0 4259732#1 4259738#1 -5219628#1 -5219628#0 5219545#3 5219547 26336491#6 26336491#7 26336491#8 26336491#9 5218323#0 5218323#1 72879236#0 72879236#1 72879236#2 135297378#0 135297379 -135297379"/>
    </vehicle>
    <vehicle id="12" type="car" depart="9.60">
        <route edges="180332288#0 -180332288#0 100611549#2 100611549#1 100611549#0 100611548 129399254#0 129399254#1 129399256#0 129399256#1 5217378#0 5217378#1 95288241 100611543#0 100611543#1 100611543#2 100611543#3 100611543#4 100611543#5 100611543#6 100611543#7 -40635002#0"/>
    </vehicle>
    <vehicle id="13" type="car" depart="10.40">
        <route edges="109176582#0 109176582#1 -263562955#2 -263562955#1 -263562955#0 -8602214 8602214"/>
    </vehicle>
    <vehicle id="15" type="car" depart="12.00">
        <route edges="-5218498#1 -5218498#0 5219681 -5218450#3 -5218450#2 -5218450#1 -5218450#0 5217363 95288248 95288244#0 95288244#1 132130879#0 132130879#1 95288241 100611543#0 100611543#1 100611543#2 100611543#3 100611543#4 100611543#5 100611543#6 130775000 100611549#2 100611549#1 100611549#0 100611548 129399254#0 129399254#1 129399256#0 129399256#1 5217378#0 5217378#1"/>
    </vehicle>
    <vehicle id="19" type="car" depart="15.20">
        <route edges="236462883#5 236461646#0 236462066#0 236461790#1 236461790#2 236367280 132148284 9167535#0 40635758#0"/>
    </vehicle>
    <vehicle id="20" type="car" depart="16.00">
        <route edges="-40634997 -95288246#8 -95288246#7 -95288246#6 5217465#0 5217465#1 5219280#0 131268561 -5219294#0 5219282#2 -40635001#1 -40635001#0 -40635002#1 -40635002#0 100611549#3 100611549#2 100611549#1 100611549#0 100611548 129399254#0 129399254#1 129399256#0 129399256#1 5217378#0 5217378#1"/>
    </vehicle>
    <vehicle id="21" type="car" depart="16.80">
        <route edges="5219545#2 5219628#0 -5219561#1 -5219561#0 200756684 269436434#0 269436434#1 5218498#0 5218498#1 93282093#0 93282093#1 5216998 93282093#4 5217005#0 5217005#1 5217010 -93282089#1"/>
    </vehicle>
    <vehicle id="23" type="car" depart="18.40">
        <route edges="-26310718#1 26310718#1 -26310705#1 -26310705#0 -5216629#0 5216613#6 5216613#0 5217352#0 5217352#1 5217352#2 5217352#3 5217471 5217473 100611543#2 100611543#3 100611543#4 100611543#5 100611543#6 100611543#7 40635002#1 40635001#0 40635001#1 40635001#2 9166501#0 9166501#1 40635757 40635758#0 9167550#2 132148283 236367426#0 236367426#1 236367426#2 236367426#3"/>
    </vehicle>
    <vehicle id="25" type="car" depart="20.00">
        <route edges="236367426#1 236368866 -236461646#6 -236461646#5 236368867 236367231 9165806#3 40635762 40635759#0 40635759#1 40635759#2 40635756 -40634999 -5219294#1 -131268561 5219280#1"/>
    </vehicle>
    <vehicle id="26" type="car" depart="20.80">
        <route edges="9167550#0 9167550#1 9167550#2 40635759#0 40635759#1 40635759#2 40635756 165358755 93282085 93282091 40634998#0 40634998#1 40634996#1 40634996#2 8295068#0 8295068#1 9703984 9703983 -9703983"/>
    </vehicle>
    <vehicle id="29" type="car" depart="23.20">
        <route edges="132130884 -132130884 26294935#2 130773975 100611543#4 100611543#5 100611543#6 130775000 100611549#2 100611549#1 100611549#0 100611548 129399258#0 129399258#1 129399258#2"/>
    </vehicle>
    <vehicle id="30" type="car" depart="24.00">
        <route edges="5217005#0 5217005#1 5217005#2 5217005#3 95288246#3 95288246#4 95288246#5 5217465#0 5217465#1 5219280#0 5219280#1 5219282#0"/>
    </vehicle>
    <vehicle id="32" type="car" depart="25.60">
        <route edges="50185490 50185492 5680500#0 5680500#1 5217390#5 5680501#0 156953870#0 156953870#1 156953871 8602311#0 8602311#1 -8602329 -8602312#0 95288244#1 132130879#0 132130879#1 95288241 100611543#0 100611543#1 100611543#2 130775002 -26294935#2 132130884"/>
    </vehicle>
    <vehicle id="35" type="car" depart="28.00">
        <route edges="95288246#1 -95288246#1 -95288246#0 -95288245 -184656307 5217363 95288248 95288244#0 95288244#1 132130879#0 132130879#1 95288241 100611543#0 100611543#1 100611543#2 100611543#3 100611543#4 100611543#5 100611543#6 130775000 100611549#2 100611549#1 100611549#0 100611548 129399258#0 129399258#1 129399258#2 129399258#3 5217466#3 5217466#2 5217466#1"/>
    </vehicle>
    <vehicle id="36" type="car" depart="28.80">
        <route edges="130911746#0 -130911746#0 5219545#1 5219545#2 5219628#0 -5219561#1 -5219561#0 200756684 269436434#0 269436434#1 5218498#0 5218498#1 93282093#0 93282093#1 5216998 93282093#4 93282093#5 93282093#6 93282093#7 93282093#8 113214452#0 113214452#1 40634995#0 40634995#1 40634995#2"/>
    </vehicle>
    <vehicle id="40" type="car" depart="32.00">
        <route edges="95288244#1 132130879#0 132130879#1 95288241 100611543#0 100611543#1 100611543#2 100611543#3 100611543#4 100611543#5 100611543#6 130775000 100611549#2 100611549#1 100611549#0 100611548 129399258#0 129399258#1 129399258#2 129399258#3 5217466#3 138578734"/>
    </vehicle>
    <vehicle id="41" type="car" depart="32.80">
        <route edges="138578733 5217466#0 22181132 129399256#0 129399256#1 5217378#0 5217378#1 95288241 100611543#0 100611543#1 100611543#2 100611543#3 100611543#4 100611543#5 100611543#6 100611543#7 40635002#1 40635001#0 40635001#1 40635001#2 165358755 93282085 93282091 40634998#0 40634998#1 40634996#1 40634996#2 3515024#0 3515024#1 3515023 263489146#0 263489146#1"/>
    </vehicle>
    <vehicle id="42" type="car" depart="33.60">
        <route edges="-93282093#4 93282093#4 5217005#0 5217005#1 5217005#2 5217005#3 95288246#3 95288246#4 95288246#5 5217465#0 5217465#1 5217465#2 40634999 9166501#0 9166501#1 40635757 40635758#0 9167550#2 132148283 236367426#0 -236461790#4 -236461790#3 -236461790#2 -236461790#1 236462066#1 236367508#2"/>
    </vehicle>
    <vehicle id="43" type="car" depart="34.40">
        <route edges="5219288#1 5219283#1 5219283#2 -5219280#2 -5219280#1 -5219280#0 -5217465#1 -5217465#0 95288246#6 -113213760#2"/>
    </vehicle>
    <vehicle id="45" type="car" depart="36.00">
        <route edges="130803765#0 130803765#1 130803765#2 130803765#3 165358780#0 256321325 -40635001#2 -40635001#1 -40635001#0 -40635002#1 -40635002#0 100611549#3 100611549#2 100611549#1 100611549#0 100611548 129399254#0 129399254#1 129399256#0 129399256#1 129399256#2 -95288244#2 -95288244#1 8602312#0 8602329 -8602311#1 -8602311#0 -8602214 -5217390#9 -5217390#8 -5217390#7 5219589 -5219540#5 -5219540#4 -5219540#3 -5219540#2 -5219540#1 -5219540#0 50185493#3 -5219404#1 -8602139 -90177337#0 -26295173#2"/>
    </vehicle>
    <vehicle id="50" type="car" depart="40.00">
        <route edges="5218358#1 5218359 72879221#1 72879236#0 72879236#1 72879236#2 72879236#3 72879236#4 72879236#5 5216613#3 5216613#4 5216613#5 5216613#6 5216613#0 5217352#0 5217352#1 5217352#2 5217352#3 5217471 5217473 100611543#2 100611543#3 100611543#4 100611543#5 100611543#6 100611543#7 40635002#1 40635001#0 40635001#1 40635001#2 9166501#0 9166501#1 40635757 40635758#0 9167550#2 132148283 236367426#0 -236461790#4 -236461790#3 236462330"/>
    </vehicle>
    <vehicle id="51" type="car" depart="40.80">
        <route edges="93282096 93282093#3 93282093#4 93282093#5 93282093#6 93282093#7 93282093#8 113214452#0 113214452#1 40634995#0 40634995#1 40634995#2 40634995#3 40634995#4 40634996#0 40634996#1 40634996#2 8295068#0 8295068#1 9703984 9703983 -8295063#2 130804568 130803765#1 9703997"/>
    </vehicle>
    <vehicle id="53" type="car" depart="42.40">
        <route edges="-95288245 95288245 95288246#0 95288246#1 95288246#2 -5217005#3 -5217005#2 -5217005#1 -5217005#0 93282093#5 93282093#6 93282093#7 93282093#8 113214452#0 113214452#1 -113214452#1"/>
    </vehicle>
    <vehicle id="55" type="car" depart="44.00">
        <route edges="8602356#0 -8602356#0 -8602355#0 -263562955#5 -263562955#4 -263562955#3 -263562955#2 -263562955#1 -263562955#0 -8602214 263562956#0 263562956#1 184656307 95288245 95288246#0 95288246#1 -95288246#1"/>
    </vehicle>
    <vehicle id="56" type="car" depart="44.80">
        <route edges="-5219285 5219285 5219282#1 5219282#2 40635001#2 165358755 93282085 93282091 40634998#0 40634998#1 -40634996#0 -40634995#4 -40634995#3 -40634995#2 -40634995#1 -40634995#0 -113214452#1 -113214452#0"/>
    </vehicle>
    <vehicle id="59" type="car" depart="47.20">
        <route edges="93282084 133197918 200756684 -269436436 -5218450#3 -5218450#2 -5218450#1 5218450#1"/>
    </vehicle>
    <vehicle id="60" type="car" depart="48.00">
        <route edges="72879221#0 72879221#1 -5218323#1 -5218323#0 -26336491#9 -26336491#8 -26336491#7 5219548 -5219545#3 -5219545#2 -5219545#1 -5219545#0 50185491 21931466 5219542#1 21931467 -5217390#1 -5217390#0"/>
    </vehicle>
    <vehicle id="61" type="car" depart="48.80">
        <route edges="109176582#1 -263562955#2 -263562955#1 8602352#0 -8602351 8602311#1 -8602329 -8602312#0 95288244#1 132130879#0 132130879#1 95288241 100611543#0 100611543#1 100611543#2 100611543#3 100611543#4 100611543#5 100611543#6 100611543#7 40635002#1 40635001#0 40635001#1 40635001#2 9166501#0 9166501#1 40635757 40635758#0 9167550#2 132148283 236367426#0 236367426#1 236368866 236461646#7 236462807 236462883#0 236462883#1"/>
    </vehicle>
    <vehicle id="64" type="car" depart="51.20">
        <route edges="5217390#4 5217390#5 5217390#6 5219589 5219545#0 5219545#1 5219545#2 5219545#3 5219547 26336491#6 26336491#7 26336491#8 93282092 -26295175#0 -26295174 -95196473#1 -95196473#0 -95196475 -72879193 -95196474#2 -95196474#1 5218357#1 -5218357#1"/>
    </vehicle>
    <vehicle id="65" type="car" depart="52.00">
        <route edges="236367231 9165806#3 40635762 40635759#0 40635759#1 40635759#2 40635756 165358755 93282085 93282091 40634998#0 40634998#1 -40634996#0 -40634995#4 -40634995#3 -40634995#2 -40634995#1 -40634995#0 -113214452#1 131003574"/>
    </vehicle>
    <vehicle id="66" type="car" depart="52.80">
        <route edges="5219280#2 -5219280#2 5219282#0 5219282#1 5219282#2 -40635001#1 -40635001#0 -40635002#1 -40635002#0 100611549#3 100611549#2 100611549#1 100611549#0 100611548 129399254#0 129399254#1 129399256#0 129399256#1 5217378#0 5217378#1 95288241 100611543#0 100611543#1 100611543#2 130775002 -26294935#2 132130884"/>
    </vehicle>
    <vehicle id="69" type="car" depart="55.20">
        <route edges="156953871 8602311#0 8602311#1 -8602329 -8602312#0 95288244#1 132130879#0 132130879#1 95288241 100611543#0 100611543#1 100611543#2 130775002 -26294935#2 -26294935#1 130775001#0 -130775001#2"/>
    </vehicle>
    <vehicle id="79" type="car" depart="63.20">
        <route edges="-8114788 8114780#4 -8114770#1 -8114770#0 72879193 95196475 95196473#0 95196473#1 26295174 26295175#0 26295175#1 200756687 -200756687 -26336491#9 -26336491#8 -26336491#7 5219548 -5219545#3 -5219545#2 -5219545#1 -5219545#0 -5219540#5 -5219540#4 -5219540#3 -5219540#2 -5219540#1 -5219540#0 -50185493#2 -50185493#1 8602426#0 -8602426#0"/>
    </vehicle>
    <vehicle id="80" type="car" depart="64.00">
        <route edges="9167550#0 9167550#1 9167550#2 40635759#0 40635759#1 40635759#2 40635756 -40634999 -5219294#1 -131268561 5219280#1 5219282#0"/>
    </vehicle>
    <vehicle id="81" type="car" depart="64.80">
        <route edges="236462883#0 236462914 -236461646#5 236368867 236367231 9165806#3 40635762 40635759#0 40635759#1 40635759#2 40635754 -40635002#1 -40635002#0 100611549#3 100611549#2 100611549#1 100611549#0 100611548 129399254#0 129399254#1 129399256#0 129399256#1 5217378#0 5217378#1 95288241 100611543#0 100611543#1 100611543#2 100611543#3 100611543#4 100611543#5 100611543#6 100611543#7"/>
    </vehicle>
    <vehicle id="83" type="car" depart="66.40">
        <route edges="-9167949 9167949 9167550#1 9167550#2 40635759#0 40635759#1 40635759#2 40635756 -40634999 -5217465#2 -5217465#1 -5217465#0 -95288246#5 -95288246#4 -95288246#3 -5217005#3 -5217005#2 5217010 93282096 -93282093#2"/>
    </vehicle>
    <vehicle id="86" type="car" depart="68.80">
        <route edges="236462883#2 236463212 236462623 236367280 132148284 40635759#1 40635759#2 40635754 -40635002#1 -40635002#0 100611549#3 100611549#2 100611549#1 100611549#0 100611548 129399254#0 129399254#1 129399256#0 129399256#1 129399256#2 -95288244#2 -95288244#1 -95288244#0 -95288248 -5217363 5218450#0 5218450#1 5218450#2 5218450#3 269436436 -200756684 5219561#0 -5219561#0"/>
    </vehicle>
    <vehicle id="87" type="car" depart="69.60">
        <route edges="263562955#5 -263562955#5 -263562955#4 -263562955#3 -263562955#2 -263562955#1 -263562955#0 -8602214 -5217390#9 4259732#0 4259732#1 4259738#1 -5219628#1 -5219628#0 5219545#3 5219547 26336491#6 26336491#7 26336491#8 93282092 -26295175#0 -26295174 -95196473#1 -95196473#0 -95196475 -72879193 -95196474#2 90177264 90177299#2 90177299#0"/>
    </vehicle>
    <vehicle id="90" type="car" depart="72.00">
        <route edges="95288246#8 -95288246#8 -95288246#7 -95288246#6 -95288246#5 -95288246#4 -95288246#3 -5217005#3 -5217005#2 5217010 93282096 -93282093#2 -93282093#1"/>
    </vehicle>
    <vehicle id="92" type="car" depart="73.60">
        <route edges="180332288#0 -180332288#0 100611549#2 100611549#1 100611549#0 100611548 129399254#0 129399254#1 129399256#0 129399256#1 5217378#0 5217378#1 95288241 100611543#0 5217472 5217470 5217362#0 5217362#1 5216613#2 5216613#3 5218342#0 5218342#1 5218342#2 -5218343#2 -5218343#1 -90177331 -5218357#2 90177291"/>
    </vehicle>
    <vehicle id="95" type="car" depart="76.00">
        <route edges="8602370 156953870#0 156953870#1 156953871 8602311#0 8602311#1 -8602329 -8602312#0 95288244#1 132130879#0 132130879#1 95288241 100611543#0 100611543#1 100611543#2 100611543#3 100611543#4 100611543#5"/>
    </vehicle>
    <vehicle id="96" type="car" depart="76.80">
        <route edges="-130911746#1 130911746#1 -5219540#3 -5219540#2 -5219540#1 -5219540#0 -50185493#2 -8602424 8602424"/>
    </vehicle>
    <vehicle id="97" type="car" depart="77.60">
        <route edges="5216613#6 5216613#0 5217352#0 5217352#1 5217352#2 5217352#3 5217471 5217473 100611543#2 130775002 -26294935#2 -26294935#1 -26294935#0 26294935#0"/>
    </vehicle>
    <vehicle id="99" type="car" depart="79.20">
        <route edges="-26294935#2 26294935#2 130773975 100611543#4 100611543#5 100611543#6 130775000 100611549#2 100611549#1 100611549#0 100611548 129399254#0 129399254#1 129399256#0 129399256#1 129399256#2 -95288244#2 -95288244#1 -95288244#0 -95288248 -5217363 5218450#0 5218450#1 5218450#2 5218450#3 269436436 -269436436"/>
    </vehicle>
    <vehicle id="100" type="car" depart="80.00">
        <route edges="-236461790#0 236461790#0 236461790#1 236461790#2 236461790#3 236461790#4 236367426#1 236367426#2"/>
    </vehicle>
    <vehicle id="104" type="car" depart="83.20">
        <route edges="236462883#4 236463214 236462066#0 236461790#1 236461790#2 236367280 132148284 40635759#1 40635759#2 40635754 -40635002#1 -40635002#0 100611549#3 100611549#2 100611549#1 100611549#0 100611548 129399254#0 129399254#1 129399256#0 129399256#1 5217378#0 5217378#1 95288241 100611543#0 5217472 5217470 5217362#0 5217362#1 5216613#2 -72879236#5 -72879236#4 -72879236#3 -72879236#2 -72879236#1 -72879236#0 -5218323#1"/>
    </vehicle>
    <vehicle id="105" type="car" depart="84.00">
        <route edges="-236461646#5 236368867 236367231 9165806#3 40635762 40635759#0 40635759#1 40635759#2 40635756 165358755 93282085 93282091 40634998#0 40634998#1"/>
    </vehicle>
    <vehicle id="107" type="car" depart="85.60">
        <route edges="-4259730#4 -4259730#3 4259736 5218450#3 269436436 269436434#0 269436434#1 5218498#0 5218498#1 -5216550 5216606#0 5216606#1 269436435"/>
    </vehicle>
    <vehicle id="110" type="car" depart="88.00">
        <route edges="131263959#1 -131263959#1 -8602348#2 109176582#1 -263562955#2 -263562955#1 8602352#0 -8602351 8602311#1 -8602329 -8602312#0 95288244#1 132130879#0 132130879#1 95288241 100611543#0 100611543#1 100611543#2 100611543#3 100611543#4 100611543#5 100611543#6 100611543#7 40635002#1 40635001#0 40635001#1 40635001#2 165358755 136990915"/>
    </vehicle>
    <vehicle id="111" type="car" depart="88.80">
        <route edges="26336491#1 26336491#2 26336491#3 26336491#4 26336491#5 26336491#6 26336491#7 26336491#8 26336491#9 200756687 133197918 200756684 269436434#0 269436434#1 5218498#0 5218498#1 93282093#0 -93282093#0"/>
    </vehicle>
    <vehicle id="112" type="car" depart="89.60">
        <route edges="-25809743#2 -25809743#1 -25809743#0 8602370 156953870#0 156953870#1 156953871 8602311#0 8602311#1 -8602329 -8602312#0 95288244#1 132130879#0 132130879#1 95288241 100611543#0 100611543#1 100611543#2 100611543#3 100611543#4 100611543#5 100611543#6 100611543#7"/>
    </vehicle>
    <vehicle id="119" type="car" depart="95.20">
        <route edges="236461646#9 -236461646#9 -236461646#8 -236461646#7 -236461646#6 -236461646#5 236368867 236367231 9165806#3 40635762 40635759#0 40635759#1 40635759#2 40635754 -40635002#1 -40635002#0 100611549#3 100611549#2 100611549#1 100611549#0 100611548 129399254#0 129399254#1 129399256#0 129399256#1 5217378#0 5217378#1 95288241 100611543#0 5217472 5217470 5217362#0 5217362#1 5216613#2 5216613#3 5218342#0 5218342#1 5218342#2 -5218343#2 -5218343#1 -90177331 90177331"/>
    </vehicle>
    <vehicle id="125" type="car" depart="100.00">
        <route edges="26295175#0 26295175#1 200756687 133197918 200756684 -269436436 -5218450#3 -5218450#2 -5218450#1 -5218450#0 5217363 95288248 95288244#0 95288244#1 132130879#0 132130879#1 95288241 100611543#0 100611543#1 100611543#2 100611543#3 100611543#4 100611543#5 100611543#6 100611543#7 40635002#1 40635001#0 40635001#1 40635001#2 9166501#0 9166501#1 40635757 40635758#0 9167550#2 132148283 236367426#0 236367426#1 236368866 236461646#7"/>
    </vehicle>
    <vehicle id="127" type="car" depart="101.60">
        <route edges="26310705#0 -26310705#0 -5216629#0 5216613#6 5216613#0 5217352#0 5217352#1 5217352#2 5217352#3 5217471 5217473 100611543#2 100611543#3 100611543#4 100611543#5 100611543#6 100611543#7 40635002#1 40635001#0 40635001#1 40635001#2 9166501#0 9166501#1 40635757 40635758#0 9167550#2 132148283 236367426#0 -236461790#4 236462766#0 236461646#4 236368867 236367231 9165806#3 40635762"/>
    </vehicle>
    <vehicle id="128" type="car" depart="102.40">
        <route edges="26336492 5219543 -5219542#1 -5219542#0 5219540#5 5219545#0 5219545#1 5219545#2 5219628#0 -5219561#1 -5219561#0 200756684 -269436436 -5218450#3"/>
    </vehicle>
    <vehicle id="129" type="car" depart="103.20">
        <route edges="40634995#1 40634995#2 40634995#3 40634995#4 -40634997 -95288246#8 -95288246#7 -95288246#6 -95288246#5 -95288246#4 -95288246#3 -95288246#2 -95288246#1 -95288246#0 -95288245 -184656307 -263562956#1 -263562956#0 8602214 263562955#0 263562955#1 8602349#0 8602349#1"/>
    </vehicle>
    <vehicle id="130" type="car" depart="104.00">
        <route edges="135297884#1 -135297884#1 -25809743#2 -25809743#1 -25809743#0 8602370 156953870#0 156953870#1 156953871 8602311#0 8602311#1 -8602329 -8602312#0 95288244#1 132130879#0 132130879#1 95288241 100611543#0 100611543#1 100611543#2 100611543#3 100611543#4 100611543#5 5219288#0 5219288#1 5219283#1 5219285 5219282#1"/>
    </vehicle>
    <vehicle id="133" type="car" depart="106.40">
        <route edges="236462824 236462883#0 236462914 -236461646#5 236368867 236367231 9165806#3 40635762 40635759#0 40635759#1 40635759#2 40635754 -40635002#1 -40635002#0 100611549#3 100611549#2 100611549#1 100611549#0 100611548 129399254#0 129399254#1 129399256#0 129399256#1 5217378#0 5217378#1 95288241 100611543#0 5217472 5217470 5217362#0 5217362#1 5216613#2 5216613#3 5216613#4 5216613#5 5216613#6 5216613#0 5217352#0 5217352#1 5217352#2"/>
    </vehicle>
    <vehicle id="136" type="car" depart="108.80">
        <route edges="9165806#0 9165806#1 9165806#2 9165806#3 40635762 40635759#0 40635759#1 40635759#2 40635754 -40635002#1 -40635002#0 100611549#3 100611549#2 100611549#1 100611549#0 100611548 129399254#0 129399254#1 129399256#0 129399256#1 129399256#2 -95288244#2 -95288244#1 -95288244#0 -95288248 -5217363"/>
    </vehicle>
    <vehicle id="137" type="car" depart="109.60">
        <route edges="8602376#0 -8602376#0 156953870#1 156953871 8602311#0 8602311#1 -8602329 -8602312#0 95288244#1 132130879#0 132130879#1 95288241 100611543#0 100611543#1 100611543#2 100611543#3 100611543#4 100611543#5 100611543#6 130775000 100611549#2 100611549#1 100611549#0 100611548 129399258#0 -129399259 129399259"/>
    </vehicle>
    <vehicle id="138" type="car" depart="110.40">
        <route edges="26295175#1 200756687 133197918 200756684 -269436436 -5218450#3 -5218450#2 -5218450#1 -5218450#0 5217363 95288248 95288244#0 95288244#1 132130879#0 132130879#1 95288241 100611543#0 100611543#1 100611543#2 100611543#3 100611543#4 100611543#5 100611543#6 100611543#7 40635002#1 40635001#0 40635001#1 40635001#2 9166501#0 9166501#1 40635757 40635758#0 9167550#2 132148283 236367426#0 -236461790#4 -236461790#3 -236461790#2"/>
    </vehicle>
    <vehicle id="142" type="car" depart="113.60">
        <route edges="100611549#0 100611548 129399254#0 129399254#1 129399256#0 129399256#1 129399256#2 -95288244#2 -95288244#1 8602312#0 8602329 -8602311#1 -8602311#0 -8602214 -5217390#9 4259732#0 4259732#1"/>
    </vehicle>
    <vehicle id="143" type="car" depart="114.40">
        <route edges="-40634995#4 -40634995#3 -40634995#2 -40634995#1 -40634995#0 -113214452#1 -113214452#0 -93282093#8 -93282093#7 -93282093#6 -93282093#5 5216575 130804567 5218258 -130995272 -5216629#1 26310705#0 26310705#1 -26310718#1 -26310718#0"/>
    </vehicle>
    <vehicle id="147" type="car" depart="117.60">
        <route edges="124558254 180313365#2 -5680501#4 -5680501#3 -5680501#2 -5680501#1 156953870#0 156953870#1 156953871 8602311#0 8602311#1 -8602329 -8602312#0 95288244#1 132130879#0 132130879#1 95288241 100611543#0 100611543#1 100611543#2 130775002 -26294935#2 -26294935#1 -26294935#0 26294936 -26294936"/>
    </vehicle>
    <vehicle id="148" type="car" depart="118.40">
        <route edges="-8602394#0 -5680501#3 -5680501#2 -5680501#1 -5680501#0 -5217390#5 -5217390#4 -5217390#3"/>
    </vehicle>
    <vehicle id="149" type="car" depart="119.20">
        <route edges="-8602375#1 -8602376#0 156953870#1 156953871 8602311#0 8602311#1 -8602329 -8602312#0 95288244#1 132130879#0 132130879#1 95288241 100611543#0 100611543#1 100611543#2 100611543#3 100611543#4 100611543#5 100611543#6 100611543#7 40635002#1 40635001#0 40635001#1 40635001#2 165358755 93282085 93282091 40634998#0 40634998#1 40634996#1 40634996#2 8295068#0 8295068#1 9703984 -9703984"/>
    </vehicle>
    <vehicle id="151" type="car" depart="120.80">
        <route edges="5680501#2 8602375#0 8602375#1 26517384#1 26517384#2 26517384#3 -8602379#0 8602355#0 8602355#1 8602355#2 -8602355#2"/>
    </vehicle>
    <vehicle id="154" type="car" depart="123.20">
        <route edges="269436434#1 5219681 -5218450#3 -5218450#2 -5218450#1 -5218450#0 5217363 95288248 95288244#0 95288244#1 132130879#0 132130879#1 95288241 100611543#0 100611543#1 100611543#2 100611543#3 100611543#4 100611543#5 100611543#6 100611543#7 40635002#1 40635001#0 40635001#1 40635001#2 9166501#0 9166501#1 40635757 40635758#0 9167550#2 132148283 236367426#0 -236461790#4 -236461790#3 -236461790#2 -236461790#1 236462066#1"/>
    </vehicle>
    <vehicle id="157" type="car" depart="125.60">
        <route edges="-5217390#8 8602371 156953871 8602311#0 8602311#1 -8602329 -8602312#0 95288244#1 132130879#0 132130879#1 95288241 100611543#0 100611543#1 100611543#2 130775002 -26294935#2 -26294935#1 130775001#0 -130775001#2"/>
    </vehicle>
    <vehicle id="159" type="car" depart="127.20">
        <route edges="236461790#2 236367280 132148284 40635759#1 40635759#2 40635754 -40635002#1 -40635002#0 100611549#3 100611549#2 100611549#1 100611549#0 100611548 129399254#0 129399254#1 129399256#0 129399256#1 129399256#2 -95288244#2 -95288244#1 8602312#0 8602329 -8602311#1 -8602311#0 -8602214 -5217390#9 4259732#0 4259732#1 4259738#1 -5219628#1"/>
    </vehicle>
    <vehicle id="160" type="car" depart="128.00">
        <route edges="26336491#4 -26336491#4 -26336491#3 -26336491#2 -50185493#3 -50185493#2 -50185493#1 -50185493#0"/>
    </vehicle>
    <vehicle id="161" type="car" depart="128.80">
        <route edges="-184656307 -263562956#1 -263562956#0 8602214 -156953871 26517384#0 26517384#1 26517384#2 -26517384#2"/>
    </vehicle>
    <vehicle id="162" type="car" depart="129.60">
        <route edges="-8602410 -25809743#1 -25809743#0 8602370 156953870#0 156953870#1 156953871 8602311#0 8602311#1 -8602329 -8602312#0 95288244#1 132130879#0 132130879#1 95288241 100611543#0 100611543#1 100611543#2 100611543#3 100611543#4 100611543#5 100611543#6 100611543#7 40635002#1 40635001#0 40635001#1 40635001#2 165358755 93282085 93282091 40634998#0 40634998#1 40634996#1 40634996#2 8295068#0 8295068#1 9703984 9703983 8295063#3 -8295063#3"/>
    </vehicle>
    <vehicle id="171" type="car" depart="136.80">
        <route edges="-263562956#1 -263562956#0 -5217390#9 -5217390#8 -5217390#7 -5217390#6 -5217390#5 -5217390#4 -5217390#3 -5217390#2 -5217390#1 -5217390#0 5219410#0 5219410#1 5219410#2 -22181128#1"/>
    </vehicle>
    <vehicle id="172" type="car" depart="137.60">
        <route edges="22181128#1 -22181128#1 -22181128#0 -5219524 26336491#0 -26336491#0"/>
    </vehicle>
    <vehicle id="174" type="car" depart="139.20">
        <route edges="-26336491#0 26336491#0 26336491#1 26336491#2 26336491#3 26336491#4 26336491#5 26336491#6 26336491#7 26336491#8 26336491#9 200756687 133197918 200756684 269436434#0 269436434#1 5218498#0 5218498#1 93282093#0 93282093#1 5216998 93282093#4 5217005#0 5217005#1 5217005#2 5217005#3 95288246#3 95288246#4 95288246#5 5217465#0 -5217465#0"/>
    </vehicle>
    <vehicle id="175" type="car" depart="140.00">
        <route edges="5217352#1 5217352#2 5217352#3 5217471 5217473 100611543#2 100611543#3 100611543#4 100611543#5 100611543#6 130775000 100611549#2 100611549#1 100611549#0 100611548 129399254#0 129399254#1 129399256#0 129399256#1 129399256#2 -95288244#2 -95288244#1 -95288244#0 -95288248 -5217363 5218450#0 5218450#1 5218450#2 5218450#3 269436436 -200756684 -133197918 133197918"/>
    </vehicle>
    <vehicle id="177" type="car" depart="141.60">
        <route edges="5219542#0 -21931466 50185492 5680500#0 5680500#1 5217390#5 5680501#0 156953870#0 156953870#1 156953871 8602311#0 8602311#1 -8602329 -8602312#0 95288244#1 132130879#0 132130879#1 95288241 100611543#0 100611543#1 100611543#2 100611543#3 100611543#4 100611543#5 100611543#6 100611543#7 40635002#1 40635001#0 40635001#1 40635001#2 9166501#0 9166501#1 40635757 40635758#0 9167550#2 132148283 236367426#0 -236461790#4 -236461790#3 236462330 236367508#3"/>
    </vehicle>
    <vehicle id="182" type="car" depart="145.60">
        <route edges="200756684 -269436436 -5218450#3 -5218450#2 -5218450#1 -5218450#0 5217363 95288248 95288244#0 95288244#1 132130879#0 132130879#1 95288241 100611543#0 100611543#1 100611543#2 100611543#3 100611543#4 100611543#5 100611543#6 100611543#7 40635002#1 40635001#0 40635001#1 40635001#2 9166501#0 9166501#1 40635757 40635758#0 9167550#2 132148283 236367426#0 -236461790#4 -236461790#3 236461790#3"/>
    </vehicle>
    <vehicle id="185" type="car" depart="148.00">
        <route edges="135297884#2 5217390#0 26336492 5219543 -5219542#1 -5219542#0 5219540#5 5219545#0 5219545#1 5219545#2 5219545#3 5219547 26336491#6 26336491#7 26336491#8 26336491#9 5218323#0 -5218323#0"/>
    </vehicle>
    <vehicle id="189" type="car" depart="151.20">